$ Generated by Mecway 33
$-----------------------EXECUTIVE CONTROL SECTION-----------------------
SOL 105
CEND
$-------------------------CASE CONTROL SECTION--------------------------
DISPLACEMENT = ALL
SPC = 1
SUBCASE 1
LOAD = 1
SUBCASE 2
METHOD = 1
BEGIN BULK
$---------------------------BULK DATA SECTION---------------------------
GRID           1       0   3.0+0  -1.0+0   4.0+1       0
GRID*                  2               0 2.17622071393+0-5.66910652432-1*
*                  4.0+1               0
GRID*                  3               0 2.03873841714+0 2.75637750168-1*
*                  4.0+1               0
GRID*                  4               0 2.59899868627+0 9.16077478375-1*
*                  4.0+1               0
GRID*                  5               0  3.4513615854+0 8.92341145094-1*
*                  4.0+1               0
GRID*                  6               0 3.97549841419+0 2.20006463322-1*
*                  4.0+1               0
GRID*                  7               0 3.78023111474+0-6.25491332948-1*
*                  4.0+1               0
GRID*                  8               0 2.08729981903+0 4.08629881021-1*
*                  0.0+0               0
GRID*                  9               0 2.10376958133+0-4.43588814845-1*
*                  0.0+0               0
GRID*                 10               0 2.83861786846+0-9.86891993898-1*
*                  0.0+0               0
GRID*                 11               0 3.67597060017+0-7.36928590638-1*
*                  0.0+0               0
GRID*                 12               0 3.99774200543+0 6.71631640186-2*
*                  0.0+0               0
GRID*                 13               0 3.58858707561+0 8.08433828105-1*
*                  0.0+0               0
GRID*                 14               0 2.75195322133+0 9.68748055788-1*
*                  0.0+0               0
GRID*                 15               0 2.19799833525+0-5.97321797471-1*
*        3.90095469456+1               0
GRID*                 16               0 2.98954082253+0-9.99945301307-1*
*        3.90104310583+1               0
GRID*                 17               0 2.03652788436+0 2.67808667495-1*
*        3.90388539448+1               0
GRID*                 18               0  2.6995294049+0 9.53791078528-1*
*        3.91128254962+1               0
GRID*                 19               0 3.83446969663+0-5.51053831676-1*
*        3.90982688858+1               0
GRID*                 20               0 3.48642178944+0 8.73724122797-1*
*        3.92395187959+1               0
GRID*                 21               0 3.96535517939+0 2.60939413709-1*
*        3.91872317384+1               0
$ ... 690 like lines cut
GRID         367       0   3.0+0   0.0+0   0.0+0       0
PARAM   QUAD4TYP  MITC4+
PARAM    STR_CID      -2
$--1---><--2---><--3---><--4---><--5---><--6---><--7---><--8---><--9---><--10-->
$$$$$$$$$$$$$$$$$$$$$$$$$$$$$$$$$$$ Material $$$$$$$$$$$$$$$$$$$$$$$$$$$$$$$$$$$
MAT1*                  1          2.0+11 7.6923076923+10           3.0-1*
*                  0.0+0           0.0+0           0.0+0
$--1---><--2---><--3---><--4---><--5---><--6---><--7---><--8---><--9---><--10-->
SPC            1       1       1   0.0+0
SPC            1       1       2   0.0+0
SPC            1       2       1   0.0+0
SPC            1       2       2   0.0+0
SPC            1       3       1   0.0+0
SPC            1       3       2   0.0+0
SPC            1       4       1   0.0+0
SPC            1       4       2   0.0+0
SPC            1       5       1   0.0+0
SPC            1       5       2   0.0+0
SPC            1       6       1   0.0+0
SPC            1       6       2   0.0+0
SPC            1       7       1   0.0+0
SPC            1       7       2   0.0+0
SPC            1     364       1   0.0+0
SPC            1     364       2   0.0+0
SPC            1     365       1   0.0+0
SPC            1     365       2   0.0+0
SPC            1     366       1   0.0+0
SPC            1     366       2   0.0+0
SPC            1     367     123   0.0+0
$--1---><--2---><--3---><--4---><--5---><--6---><--7---><--8---><--9---><--10-->
$$$$$$$$$$$$$$$$$$$$$$$$$$$$$$$$$$$ Default $$$$$$$$$$$$$$$$$$$$$$$$$$$$$$$$$$$$
PSHELL         1       1   1.0-1       1               1           0.0+0
CQUAD4*                1               1               1               2*
*                     15              16-3.4720848203-18           0.0+0
CQUAD4*                2               1               2               3*
*                     17              15  1.488617598-18           0.0+0
CQUAD4*                3               1               3               4*
*                     18              17-2.9723015714-16           0.0+0
CQUAD4*                4               1               7               1*
*                     16              19 6.2486987917-17           0.0+0
CQUAD4*                5               1               4               5*
*                     20              18 5.8227651614-18           0.0+0
CQUAD4*                6               1               5               6*
*                     21              20-1.1909210386-16           0.0+0
CQUAD4*                7               1               6               7*
*                     19              21-6.3947125521-18           0.0+0
CQUAD4*                8               1               8               9*
*                     22              23 1.5140616032-19           0.0+0
CQUAD4*                9               1               9              10*
*                     24              22-6.9380100599-17           0.0+0
CQUAD4*               10               1              10              11*
*                     25              24-1.6222782566-17           0.0+0
CQUAD4*               11               1              14               8*
*                     23              26 3.5205102124-17           0.0+0
CQUAD4*               12               1              11              12*
*                     27              25-2.0184961777-17           0.0+0
CQUAD4*               13               1              12              13*
*                     28              27-1.6299301783-19           0.0+0
CQUAD4*               14               1              13              14*
*                     26              28 -2.074955999-18           0.0+0
CQUAD4*               15               1              15              17*
*                     29              30 6.9619317769-18           0.0+0
CQUAD4        16       1      20      21      31      32   0.0+0   0.0+0
CQUAD4*               17               1              19              16*
*                     33              34-4.0551117049-16           0.0+0
CQUAD4*               18               1              21              19*
*                     34              31-7.6681426659-16           0.0+0
CQUAD4*               19               1              24              25*
*                     35              36-6.7700099514-18           0.0+0
CQUAD4*               20               1              15              30*
*                     33              16 4.3678575759-16           0.0+0
CQUAD4        21       1      35      25      27      37   0.0+0   0.0+0
CQUAD4*               22               1              37              27*
*                     28              38-1.2357314076-17           0.0+0
CQUAD4*               23               1              38              28*
*                     26              39 9.2905298936-17           0.0+0
CQUAD4*               24               1              39              26*
*                     23              40 2.8003404845-16           0.0+0
CQUAD4*               25               1              24              36*
*                     41              22-5.9028370331-17           0.0+0
CQUAD4*               26               1              40              23*
*                     22              41 8.0259184993-16           0.0+0
CQUAD4*               27               1              29              17*
*                     18              42 2.9062975363-16           0.0+0
CQUAD4        29       1      31      34      44      43   0.0+0   0.0+0
CQUAD4*               30               1              34              33*
*                     45              44 1.0551727234-15           0.0+0
CQUAD4*               31               1              41              36*
*                     46              47-1.5339333048-17           0.0+0
CQUAD4*               32               1              30              29*
*                     48              49 4.9809212149-17           0.0+0
CQUAD4*               33               1              37              38*
*                     50              51 4.4645602745-17           0.0+0
CQUAD4*               34               1              40              41*
*                     47              52-2.1974339857-19           0.0+0
CQUAD4*               35               1              38              39*
*                     53              50 2.5597287564-17           0.0+0
CQUAD4*               36               1              29              42*
*                     54              48-6.2835808365-16           0.0+0
CQUAD4        37       1      39      40      52      53   0.0+0   0.0+0
CQUAD4*               38               1              46              36*
*                     35              55  6.413198703-17           0.0+0
CQUAD4*               39               1              37              51*
*                     55              35-3.9923673454-17           0.0+0
CQUAD4*               40               1              42              43*
*                     56              54-6.5433086916-15           0.0+0
CQUAD4*               41               1              56              43*
*                     44              57  7.131674829-16           0.0+0
CQUAD4*               42               1              57              44*
*                     45              58 1.3356082455-16           0.0+0
CQUAD4        43       1      45      33      59      58   0.0+0   0.0+0
CQUAD4*               44               1              30              49*
*                     59              33-6.2525733469-16           0.0+0
CQUAD4        45       1      53      52      60      61   0.0+0   0.0+0
CQUAD4*               46               1              53              61*
*                     62              50 1.9273184678-16           0.0+0
CQUAD4*               47               1              50              62*
*                     63              51 5.3324989229-16           0.0+0
CQUAD4*               48               1              60              52*
*                     47              64 6.2294375396-17           0.0+0
CQUAD4*               49               1              51              63*
*                     65              55 3.5775467658-16           0.0+0
CQUAD4*               50               1              64              47*
*                     46              66-5.3980499289-16           0.0+0
CQUAD4*               51               1              66              46*
*                     55              65-1.5677904374-15           0.0+0
CQUAD4*               52               1              48              54*
*                     67              68 -1.952087047-15           0.0+0
CQUAD4*               53               1              48              68*
*                     69              49 3.2588212327-16           0.0+0
CQUAD4*               54               1              49              69*
*                     70              59-1.2618394687-15           0.0+0
CQUAD4*               55               1              54              56*
*                     71              67  4.741443993-17           0.0+0
CQUAD4*               57               1              70              69*
*                     73              72 8.7478286764-18           0.0+0
CQUAD4*               58               1              71              56*
*                     57              74 1.3787113575-16           0.0+0
CQUAD4*               59               1             142             139*
*                    154             155 9.7479704152-15           0.0+0
CQUAD4*               60               1              69              68*
*                     75              73 1.0018830417-15           0.0+0
CQUAD4*               61               1              68              67*
*                     76              75-2.9530801969-15           0.0+0
CQUAD4*               62               1             228             246*
*                    227             226-4.4912634937-15           0.0+0
CQUAD4*               63               1              65              63*
*                     77              78 2.2156152864-16           0.0+0
CQUAD4*               64               1              61              60*
*                     79              80 4.7059832301-16           0.0+0
CQUAD4*               65               1              77              63*
*                     62              81 1.7649786862-15           0.0+0
CQUAD4*               67               1              65              78*
*                     83              66 1.4297825253-17           0.0+0
$ ... 8 like lines cut
CQUAD4        73       1     211     204     212     232   0.0+0   0.0+0
CQUAD4        74       1      83      78      87      89   0.0+0   0.0+0
CQUAD4*               75               1             215             243*
*                    247             232 5.1015826619-19           0.0+0
CQUAD4        76       1     139     138     195     154   0.0+0   0.0+0
CQUAD4*               77               1              86              82*
*                     90              92 -6.939445966-16           0.0+0
CQUAD4*               79               1              84              83*
*                     85              88-5.5802273927-15           0.0+0
CQUAD4*               80               1              89              87*
*                     94              91 1.5924273878-15           0.0+0
CQUAD4*               81               1              73              75*
*                     95              96 6.0027270496-16           0.0+0
CQUAD4*               82               1              95              75*
*                     76              97 1.5540113738-15           0.0+0
CQUAD4*               83               1              97              76*
*                     67              98 2.1593201618-16           0.0+0
CQUAD4*               84               1              98              67*
*                     71              99 1.5817097199-15           0.0+0
CQUAD4*               85               1              99              71*
*                     74             100-1.0826812511-16           0.0+0
CQUAD4*               86               1             100              74*
*                     72             101 1.8537523975-16           0.0+0
CQUAD4*               88               1              88              85*
*                    102              93 2.5947235141-15           0.0+0
CQUAD4*               89               1              42              18*
*                     20              32 1.4450178802-17           0.0+0
CQUAD4*               90               1              81              62*
*                     61              80 1.5100275358-15           0.0+0
CQUAD4*               91               1              98              99*
*                    104             105-6.2496091368-18           0.0+0
CQUAD4*               92               1              98             105*
*                    106              97 4.1953692129-16           0.0+0
CQUAD4*               93               1              97             106*
*                    107              95-1.7282207222-16           0.0+0
CQUAD4*               94               1             104              99*
*                    100             108-2.0723567676-17           0.0+0
CQUAD4*               95               1             108             100*
*                    101             109-2.8634820518-17           0.0+0
CQUAD4*               96               1              95             107*
*                    110              96-4.4076935167-16           0.0+0
CQUAD4*               97               1              96             110*
*                    109             101-3.7545952011-16           0.0+0
CQUAD4*               98               1              96             101*
*                     72              73-4.9205187057-17           0.0+0
CQUAD4*               99               1             341             345*
*                    344             363 1.1270443838-15           0.0+0
CQUAD4*              100               1              93             102*
*                    103             113-1.2677641149-16           0.0+0
CQUAD4       101       1      91      94     112     114   0.0+0   0.0+0
CQUAD4*              102               1             103              91*
*                    114             115-9.0492018711-16           0.0+0
CQUAD4       103       1     354     345     341     340   0.0+0   0.0+0
CQUAD4*              104               1              92              90*
*                    116             111-6.9743013259-17           0.0+0
CQUAD4*              105               1             112             111*
*                    117             118-1.7844339379-16           0.0+0
CQUAD4*              107               1             270             287*
*                    286             279-3.2073429023-15           0.0+0
CQUAD4*              108               1             106             105*
*                    121             122 2.0829193826-17           0.0+0
CQUAD4*              109               1             107             106*
*                    122             123 5.7332092318-18           0.0+0
CQUAD4*              110               1             105             104*
*                    124             121 4.0214856788-16           0.0+0
CQUAD4*              111               1             114             112*
*                    118             125-1.5595049934-15           0.0+0
CQUAD4*              113               1             207             225*
*                    216             217-5.8620351998-16           0.0+0
CQUAD4*              114               1             247             243*
*                    264             268 3.0872747133-15           0.0+0
CQUAD4       115       1     107     123     126     110   0.0+0   0.0+0
CQUAD4*              116               1             124             104*
*                    108             127  6.936465528-18           0.0+0
CQUAD4*              117               1             127             108*
*                    109             128  5.665483585-17           0.0+0
CQUAD4       118       1     188     187     225     207   0.0+0   0.0+0
CQUAD4*              119               1             114             125*
*                    130             115 -9.922603788-16           0.0+0
CQUAD4*              120               1             228             229*
*                    245             246-4.1777942419-16           0.0+0
CQUAD4*              121               1             122             121*
*                    131             132-1.4053403826-16           0.0+0
CQUAD4*              122               1             131             121*
*                    124             133 8.4065095714-18           0.0+0
CQUAD4*              123               1             122             132*
*                    134             123 3.9268590756-18           0.0+0
CQUAD4*              124               1             133             124*
*                    127             135-2.1995319038-16           0.0+0
CQUAD4       125       1     135     127     128     136   0.0+0   0.0+0
CQUAD4*              126               1             123             134*
*                    137             126-2.5645119273-17           0.0+0
CQUAD4*              127               1             126             137*
*                    136             128-9.2030209468-17           0.0+0
CQUAD4*              128               1             126             128*
*                    109             110 1.1063443549-16           0.0+0
CQUAD4*              129               1             117             170*
*                    138             139-6.4298688343-15           0.0+0
CQUAD4*              131               1             129             115*
*                    130             141 6.3707539173-15           0.0+0
CQUAD4*              132               1             118             139*
*                    142             125-2.2252877549-17           0.0+0
CQUAD4*              133               1             120             140*
*                    143             119 3.8905058062-17           0.0+0
CQUAD4*              134               1             125             142*
*                    144             130-5.4123126773-16           0.0+0
CQUAD4*              135               1             131             133*
*                    145             146-1.3687281593-18           0.0+0
CQUAD4*              136               1             143             140*
*                    147             148 8.1823707187-16           0.0+0
CQUAD4*              137               1             132             131*
*                    146             149-8.8461785673-17           0.0+0
CQUAD4*              138               1             145             133*
*                    135             150-7.8618845943-17           0.0+0
CQUAD4*              139               1             132             149*
*                    151             134  1.870213049-16           0.0+0
CQUAD4*              140               1             150             135*
*                    136             152 3.7729224069-16           0.0+0
CQUAD4*              141               1             134             151*
*                    153             137 4.9813874981-17           0.0+0
CQUAD4*              142               1             175             173*
*                    174             161-3.5557448227-15           0.0+0
CQUAD4*              143               1             215             232*
*                    212             206 -2.226359237-15           0.0+0
CQUAD4*              144               1             140             129*
*                    157             147-5.2885112499-16           0.0+0
CQUAD4*              145               1             157             129*
*                    141             158-1.4902097367-15           0.0+0
CQUAD4*              146               1             142             156*
*                    159             144 1.0777140366-15           0.0+0
$ ... 18 like lines cut
CQUAD4       157       1     155     154     171     172   0.0+0   0.0+0
CQUAD4*              159               1             138             170*
*                    169             174-5.0912063935-16           0.0+0
CQUAD4*              160               1             194             171*
*                    173             175-2.3894267877-16           0.0+0
CQUAD4*              161               1             169             148*
*                    161             174 2.2508957985-15           0.0+0
CQUAD4*              162               1             222             211*
*                    232             247-1.5769744919-15           0.0+0
CQUAD4*              163               1             157             158*
*                    176             177 3.8184889548-16           0.0+0
CQUAD4*              164               1             158             141*
*                    130             144-1.6341686518-15           0.0+0
CQUAD4*              165               1             223             199*
*                    211             222-2.4520251317-15           0.0+0
CQUAD4*              166               1              84              64*
*                     66              83 6.2311926675-16           0.0+0
CQUAD4*              167               1             156             155*
*                    172             178 1.4964064783-15           0.0+0
CQUAD4*              168               1             147             157*
*                    177             160 3.6899882153-16           0.0+0
CQUAD4       169       1     156     178     179     159   0.0+0   0.0+0
CQUAD4*              170               1             177             176*
*                    180             181-1.4380318775-16           0.0+0
CQUAD4*              171               1             162             164*
*                    182             183  -3.79266052-16           0.0+0
CQUAD4*              172               1             162             183*
*                    184             163 4.3732379618-16           0.0+0
CQUAD4*              173               1             182             164*
*                    166             185 1.2686660136-15           0.0+0
CQUAD4*              174               1             163             184*
*                    186             165 2.3591499847-17           0.0+0
CQUAD4*              175               1             165             186*
*                    187             167 1.2255583653-16           0.0+0
CQUAD4*              176               1             185             166*
*                    168             188 -1.653224523-15           0.0+0
CQUAD4*              177               1             167             187*
*                    188             168-4.5737447233-16           0.0+0
CQUAD4*              178               1             161             160*
*                    189             190-8.0010149087-16           0.0+0
CQUAD4       179       1     172     171     191     192   0.0+0   0.0+0
CQUAD4*              180               1             160             177*
*                    181             189 1.9301245152-16           0.0+0
CQUAD4*              181               1             178             172*
*                    192             193 1.5830573557-15           0.0+0
CQUAD4       182       1      94      92     111     112   0.0+0   0.0+0
CQUAD4*              183               1             173             171*
*                    154             195 5.6361215998-15           0.0+0
CQUAD4*              184               1             176             144*
*                    159             180-6.3914266274-15           0.0+0
CQUAD4*              185               1             178             193*
*                    196             179 6.1657185064-16           0.0+0
CQUAD4       186       1     190     189     197     198   0.0+0   0.0+0
CQUAD4*              187               1             192             191*
*                    199             200-7.4083112525-16           0.0+0
CQUAD4*              189               1             182             185*
*                    203             201-1.7489836152-15           0.0+0
CQUAD4*              190               1             191             171*
*                    194             204-1.6363753921-16           0.0+0
CQUAD4*              191               1             193             192*
*                    200             205-2.1537867892-18           0.0+0
CQUAD4*              192               1             175             161*
*                    190             206 2.0720555945-15           0.0+0
CQUAD4*              193               1             262             252*
*                    236             265 3.7289520056-15           0.0+0
CQUAD4*              194               1             185             188*
*                    207             203  8.833284304-16           0.0+0
CQUAD4*              195               1             181             180*
*                    208             209 1.9641492634-15           0.0+0
CQUAD4*              196               1             184             202*
*                    210             186  4.494009618-17           0.0+0
CQUAD4*              197               1             347             357*
*                    360             362-8.1473183354-16           0.0+0
CQUAD4*              198               1             199             191*
*                    204             211-5.0091138995-16           0.0+0
CQUAD4       199       1     180     159     179     208   0.0+0   0.0+0
CQUAD4*              200               1             194             175*
*                    206             212-3.5357425856-15           0.0+0
CQUAD4*              201               1              87              86*
*                     92              94-2.6109738043-15           0.0+0
CQUAD4       202       1     189     181     209     197   0.0+0   0.0+0
CQUAD4*              203               1             193             205*
*                    213             196 1.1804271131-16           0.0+0
CQUAD4*              204               1             198             197*
*                    214             215 3.5151290594-16           0.0+0
CQUAD4       205       1     347     362     355     329   0.0+0   0.0+0
CQUAD4*              206               1             138             174*
*                    173             195-2.9822932235-17           0.0+0
CQUAD4*              207               1             207             217*
*                    218             203-4.4959820809-15           0.0+0
CQUAD4*              208               1             209             208*
*                    219             220-1.6381554599-15           0.0+0
CQUAD4*              209               1             203             218*
*                    221             201 3.1535272731-15           0.0+0
CQUAD4*              210               1             153             167*
*                    168             152 3.5614512444-16           0.0+0
CQUAD4       211       1     202     201     221     224   0.0+0   0.0+0
CQUAD4*              212               1             153             152*
*                    136             137-1.0212385522-17           0.0+0
CQUAD4       213       1      70      72      74      57   0.0+0   0.0+0
CQUAD4       214       1     202     224     226     210   0.0+0   0.0+0
CQUAD4*              215               1             225             210*
*                    226             227 -2.298023476-16           0.0+0
CQUAD4*              216               1              70              57*
*                     58              59   9.28121388-16           0.0+0
CQUAD4*              217               1             224             221*
*                    229             228 4.0261866351-16           0.0+0
CQUAD4*              218               1             197             209*
*                    220             214 -3.150348164-16           0.0+0
CQUAD4*              219               1             221             218*
*                    230             229-3.2682047196-15           0.0+0
CQUAD4*              220               1             274             361*
*                    308             291 -9.530809954-15           0.0+0
CQUAD4*              221               1             179             196*
*                    219             208 6.1684986378-17           0.0+0
CQUAD4*              222               1             225             227*
*                    231             216-7.9476811762-15           0.0+0
CQUAD4*              223               1             190             198*
*                    215             206-2.9137251781-15           0.0+0
CQUAD4*              224               1              31              43*
*                     42              32-1.0408139288-15           0.0+0
CQUAD4*              225               1             205             200*
*                    223             233  3.175552848-15           0.0+0
CQUAD4*              226               1             348             359*
*                    362             360 2.0852436416-17           0.0+0
CQUAD4*              227               1             328             342*
*                    359             348 8.6213583118-16           0.0+0
CQUAD4*              228               1             330             363*
*                    344             349-2.4653794797-16           0.0+0
CQUAD4*              229               1             205             233*
*                    234             213-8.8098668678-16           0.0+0
CQUAD4*              230               1             218             217*
*                    235             230 3.2675057746-15           0.0+0
CQUAD4*              231               1             217             216*
*                    236             235-1.9063901528-15           0.0+0
CQUAD4*              232               1             220             219*
*                    237             238 1.6503861417-15           0.0+0
CQUAD4*              233               1             216             231*
*                    239             236-6.5625737911-15           0.0+0
CQUAD4*              234               1             327             341*
*                    363             330 4.1490944462-16           0.0+0
$ ... 8 like lines cut
CQUAD4       239       1     290     265     267     292   0.0+0   0.0+0
CQUAD4       240       1     219     196     213     237   0.0+0   0.0+0
CQUAD4*              241               1             281             262*
*                    265             290-7.7855139293-16           0.0+0
CQUAD4*              242               1             222             247*
*                    249             240-1.5976937382-15           0.0+0
CQUAD4*              243               1             231             227*
*                    246             248-6.3647120809-15           0.0+0
CQUAD4*              244               1             346             353*
*                    358             360-2.4754648567-16           0.0+0
CQUAD4*              246               1             239             231*
*                    248             250  6.468628238-15           0.0+0
CQUAD4*              247               1             229             230*
*                    251             245-3.4243979325-15           0.0+0
CQUAD4*              248               1             230             235*
*                    252             251  6.340944174-15           0.0+0
CQUAD4*              249               1             233             244*
*                    253             234 3.0996359182-17           0.0+0
CQUAD4*              250               1             186             210*
*                    225             187-1.5389596317-16           0.0+0
CQUAD4*              251               1             246             245*
*                    254             255-1.7253834176-15           0.0+0
CQUAD4*              252               1             238             237*
*                    256             257-1.7430854813-15           0.0+0
CQUAD4*              253               1             120             115*
*                    129             140 5.4991889257-16           0.0+0
CQUAD4*              254               1             248             246*
*                    255             258-2.6088799684-16           0.0+0
CQUAD4*              255               1             254             245*
*                    251             259 3.2167885364-15           0.0+0
CQUAD4*              256               1             241             240*
*                    260             261 4.9525588611-16           0.0+0
CQUAD4*              257               1             251             252*
*                    262             259  1.497087102-15           0.0+0
CQUAD4       258       1     243     242     263     264   0.0+0   0.0+0
CQUAD4*              259               1             242             238*
*                    257             263 2.2193545318-15           0.0+0
CQUAD4*              260               1             113             103*
*                    115             120 5.6153040162-16           0.0+0
CQUAD4*              261               1             213             234*
*                    256             237-3.5036367132-17           0.0+0
CQUAD4*              262               1             241             261*
*                    266             244  9.893450332-17           0.0+0
CQUAD4       263       1     236     239     267     265   0.0+0   0.0+0
CQUAD4*              264               1             113             116*
*                     90              93-6.5388382503-15           0.0+0
CQUAD4*              265               1             248             258*
*                    269             250 2.1850158943-15           0.0+0
CQUAD4*              266               1             260             240*
*                    249             270-1.0764428365-17           0.0+0
CQUAD4*              267               1             255             254*
*                    271             272  -1.38211226-15           0.0+0
CQUAD4*              268               1             244             266*
*                    273             253-1.5207250685-16           0.0+0
CQUAD4*              269               1             267             239*
*                    250             274-9.6653008484-15           0.0+0
CQUAD4*              270               1             120             119*
*                    116             113-1.6596341102-16           0.0+0
CQUAD4*              271               1             254             259*
*                    275             271 3.3981862212-17           0.0+0
CQUAD4*              272               1             258             255*
*                    272             276 3.2747879147-15           0.0+0
CQUAD4       273       1     257     256     277     278   0.0+0   0.0+0
CQUAD4       274       1     261     260     279     280   0.0+0   0.0+0
CQUAD4*              275               1             259             262*
*                    281             275 5.3081910138-16           0.0+0
CQUAD4*              276               1             264             263*
*                    282             283 1.5904565484-15           0.0+0
CQUAD4*              277               1             263             257*
*                    278             282-8.1623232589-16           0.0+0
CQUAD4*              278               1             266             261*
*                    280             284 1.6111192946-15           0.0+0
CQUAD4       279       1     256     234     253     277   0.0+0   0.0+0
CQUAD4*              280               1             266             284*
*                    285             273-8.3626720169-17           0.0+0
CQUAD4*              281               1              80              93*
*                     90              82-3.4769731826-15           0.0+0
CQUAD4*              282               1             270             249*
*                    268             287 4.0700774424-16           0.0+0
CQUAD4*              283               1             272             271*
*                    288             289-3.9391594409-16           0.0+0
CQUAD4*              284               1              79              88*
*                     93              80 1.1830606164-15           0.0+0
CQUAD4       286       1     267     274     291     292   0.0+0   0.0+0
CQUAD4*              287               1             258             276*
*                    293             269-1.4947791706-15           0.0+0
CQUAD4*              289               1             268             264*
*                    283             287-3.0999178503-15           0.0+0
CQUAD4*              290               1             276             272*
*                    289             294-3.4953554158-15           0.0+0
CQUAD4       291       1     278     277     295     296   0.0+0   0.0+0
CQUAD4*              292               1             288             271*
*                    275             297-3.6717886186-17           0.0+0
CQUAD4*              293               1             275             281*
*                    298             297 1.0864657734-15           0.0+0
CQUAD4*              294               1             283             282*
*                    299             300-1.5910178049-15           0.0+0
CQUAD4*              295               1             282             278*
*                    296             299-6.3386752615-16           0.0+0
CQUAD4*              296               1             250             269*
*                    361             274 2.2830124172-15           0.0+0
CQUAD4*              297               1             280             279*
*                    301             302 2.0326694949-15           0.0+0
CQUAD4*              299               1             283             300*
*                    286             287 5.5951784609-16           0.0+0
CQUAD4*              300               1             298             281*
*                    290             303-7.1222962718-17           0.0+0
CQUAD4*              301               1             301             279*
*                    286             304 -1.058675673-17           0.0+0
CQUAD4       302       1       2       1       7     364   0.0+0   0.0+0
CQUAD4*              303               1             276             294*
*                    305             293 4.8165196347-17           0.0+0
CQUAD4*              304               1             289             288*
*                    306             307-3.9216797578-16           0.0+0
CQUAD4       305       1       9       8      14     367   0.0+0   0.0+0
CQUAD4*              306               1             116             119*
*                    169             170-1.8845568508-15           0.0+0
CQUAD4*              307               1             292             291*
*                    309             303 2.5968093771-15           0.0+0
CQUAD4*              308               1             280             302*
*                    310             284 4.0355679558-16           0.0+0
CQUAD4*              309               1             284             310*
*                    311             285 1.1046285298-16           0.0+0
CQUAD4*              310               1             253             273*
*                    295             277  1.864850992-17           0.0+0
CQUAD4*              311               1             116             170*
*                    117             111 3.2024361527-15           0.0+0
CQUAD4       312       1     296     295     312     313   0.0+0   0.0+0
CQUAD4       313       1     288     297     314     306   0.0+0   0.0+0
CQUAD4       314       1     297     298     315     314   0.0+0   0.0+0
CQUAD4*              315               1             300             299*
*                    316             317-1.2797187469-17           0.0+0
CQUAD4       316       1     299     296     313     316   0.0+0   0.0+0
CQUAD4*              317               1             286             300*
*                    317             304-9.0366636278-17           0.0+0
CQUAD4*              318               1              89              91*
*                    103             102 3.5030268899-16           0.0+0
CQUAD4*              319               1             298             303*
*                    319             315 4.2717061425-17           0.0+0
CQUAD4*              320               1             302             301*
*                    320             321 1.5339388491-15           0.0+0
CQUAD4*              321               1             294             289*
*                    307             322 1.6215958819-15           0.0+0
CQUAD4*              322               1              89             102*
*                     85              83 1.7619726857-15           0.0+0
CQUAD4*              323               1             320             301*
*                    304             323 5.5610329067-17           0.0+0
CQUAD4*              324               1             307             306*
*                    324             325-3.6733708654-16           0.0+0
CQUAD4*              325               1             291             308*
*                    326             309-6.4057839847-15           0.0+0
CQUAD4*              326               1             295             273*
*                    285             312 3.2525000376-15           0.0+0
CQUAD4*              327               1             302             321*
*                    327             310 1.9601874867-16           0.0+0
CQUAD4*              328               1             303             309*
*                    328             319 -1.113747886-15           0.0+0
CQUAD4*              329               1             294             322*
*                    329             305-1.0744682007-17           0.0+0
CQUAD4*              331               1             310             327*
*                    330             311   8.31400614-17           0.0+0
CQUAD4       332       1     322     307     325     331   0.0+0   0.0+0
CQUAD4       333       1     313     312     332     333   0.0+0   0.0+0
CQUAD4*              334               1             306             314*
*                    334             324-1.6437918452-15           0.0+0
CQUAD4*              335               1             317             316*
*                    335             336 8.1729426566-16           0.0+0
CQUAD4*              336               1             316             313*
*                    333             335 1.8831168463-17           0.0+0
CQUAD4       337       1      13      12     367      14   0.0+0   0.0+0
CQUAD4*              338               1             314             315*
*                    337             334 8.8673376122-16           0.0+0
CQUAD4       339       1     304     317     336     323   0.0+0   0.0+0
CQUAD4       340       1     366     365     364       7   0.0+0   0.0+0
CQUAD4*              341               1             293             305*
*                    338             318 5.6222597987-16           0.0+0
CQUAD4*              342               1             321             320*
*                    339             340 -5.097459928-17           0.0+0
CQUAD4*              343               1             327             321*
*                    340             341 3.5851990984-20           0.0+0
CQUAD4*              344               1             318             338*
*                    342             326-4.3926523914-16           0.0+0
CQUAD4*              345               1             315             319*
*                    343             337-3.1361635603-15           0.0+0
CQUAD4*              346               1             325             324*
*                    344             345-4.2773029213-16           0.0+0
CQUAD4*              347               1             312             285*
*                    311             332-1.7699684324-15           0.0+0
CQUAD4*              348               1             339             320*
*                    323             346 1.7249900308-16           0.0+0
CQUAD4*              349               1             322             331*
*                    347             329-1.1339287159-16           0.0+0
CQUAD4*              350               1             343             319*
*                    328             348 6.8197349178-17           0.0+0
CQUAD4       351       1       9     367      11      10   0.0+0   0.0+0
CQUAD4*              352               1             333             332*
*                    349             350-3.4854372155-15           0.0+0
CQUAD4*              353               1             324             334*
*                    351             344-1.5999479035-15           0.0+0
CQUAD4*              354               1             336             335*
*                    352             353 1.6368890101-15           0.0+0
CQUAD4       355       1       4       3     364     365   0.0+0   0.0+0
CQUAD4*              356               1             335             333*
*                    350             352-4.5736993108-16           0.0+0
CQUAD4*              357               1             331             325*
*                    345             354-3.6008881416-17           0.0+0
CQUAD4*              358               1             309             326*
*                    342             328 1.1170266759-16           0.0+0
CQUAD4*              359               1             323             336*
*                    353             346-2.4071594378-15           0.0+0
CQUAD4*              360               1             305             329*
*                    355             338-2.8109988805-16           0.0+0
CQUAD4*              361               1             334             337*
*                    356             351  -3.09292236-15           0.0+0
CQUAD4*              362               1             340             339*
*                    357             354 2.1448445229-16           0.0+0
CQUAD4*              363               1             337             343*
*                    358             356 -3.360793265-15           0.0+0
CQUAD4*              364               1             332             311*
*                    330             349 1.4808040139-15           0.0+0
CQUAD4       365       1     342     338     355     359   0.0+0   0.0+0
CQUAD4       366       1       6       5     365     366   0.0+0   0.0+0
CQUAD4*              367               1             343             348*
*                    360             358 6.2113697968-15           0.0+0
CQUAD4*              368               1             357             339*
*                    346             360 4.3171969224-17           0.0+0
CQUAD4*              369               1             318             326*
*                    308             361 -1.636431015-15           0.0+0
CQUAD4*              370               1             331             354*
*                    357             347-1.4259604777-15           0.0+0
CQUAD4       371       1     344     351     350     349   0.0+0   0.0+0
CQUAD4*              372               1             353             352*
*                    356             358  1.710350015-15           0.0+0
CQUAD4*              373               1             352             350*
*                    351             356 -1.306381513-15           0.0+0
PSHELL         2       1   1.0-1       1               1           0.0+0
CTRIA3*               28               2             224             228*
*                    226 2.3334805926-17           0.0+0
CTRIA3*               56               2             142             155*
*                    156-6.2420482589-15           0.0+0
CTRIA3*               66               2             204             194*
*                    212-3.2559016983-17           0.0+0
CTRIA3*               69               2             118             117*
*                    139-5.2775109791-16           0.0+0
CTRIA3*               78               2              79              84*
*                     88 1.4685585456-15           0.0+0
CTRIA3*               87               2              82              81*
*                     80-2.5183152093-15           0.0+0
CTRIA3*              106               2             260             270*
*                    279 8.3613941892-17           0.0+0
CTRIA3*              112               2             249             247*
*                    268 1.4591757819-16           0.0+0
CTRIA3       130       2     200     199     223   0.0+0   0.0+0
CTRIA3*              153               2             184             183*
*                    202 1.4967338207-15           0.0+0
CTRIA3*              158               2             176             158*
*                    144 1.6376826354-15           0.0+0
CTRIA3*              188               2             252             235*
*                    236 6.3614856531-16           0.0+0
CTRIA3       245       2       3       2     364   0.0+0   0.0+0
CTRIA3       285       2       5       4     365   0.0+0   0.0+0
CTRIA3       288       2       7       6     366   0.0+0   0.0+0
CTRIA3*              298               2             292             303*
*                    290 2.4058607565-15           0.0+0
CTRIA3       330       2      12      11     367   0.0+0   0.0+0
CTRIA3*              374               2             355             362*
*                    359-8.0505592986-18           0.0+0
$--1---><--2---><--3---><--4---><--5---><--6---><--7---><--8---><--9---><--10-->
$$$$$$$$$$$$$$$$$$$$$$$$$$$$$$$$$$$$ force $$$$$$$$$$$$$$$$$$$$$$$$$$$$$$$$$$$$$
FORCE*                 2               6               0           1.0+0*
*                  0.0+0           0.0+0-6.06499781747-2
FORCE*                 2               5               0           1.0+0*
*                  0.0+0           0.0+0-7.40765333616-2
FORCE*                 2             365               0           1.0+0*
*                  0.0+0           0.0+0-1.38261337706-1
FORCE*                 2             366               0           1.0+0*
*                  0.0+0           0.0+0-8.00378277416-2
FORCE*                 2               4               0           1.0+0*
*                  0.0+0           0.0+0-8.55099006953-2
FORCE*                 2             364               0           1.0+0*
*                  0.0+0           0.0+0-1.84143775596-1
FORCE*                 2               7               0           1.0+0*
*                  0.0+0           0.0+0-1.25457165826-1
FORCE*                 2               3               0           1.0+0*
*                  0.0+0           0.0+0-8.99430860554-2
FORCE*                 2               2               0           1.0+0*
*                  0.0+0           0.0+0-9.90094838204-2
FORCE*                 2               1               0           1.0+0*
*                  0.0+0           0.0+0-6.29109110235-2
$--1---><--2---><--3---><--4---><--5---><--6---><--7---><--8---><--9---><--10-->
EIGRL          1                       1       0           1.0+7    MASS
LOAD           1   1.0+0   1.0+0       2
ENDDATA 
