$ Generated by Mecway 33
$-----------------------EXECUTIVE CONTROL SECTION-----------------------
SOL 105
CEND
$-------------------------CASE CONTROL SECTION--------------------------
DISPLACEMENT = ALL
SPC = 1
SUBCASE 1
TEMPERATURE = 4
SUBCASE 2
METHOD = 1
BEGIN BULK
$---------------------------BULK DATA SECTION---------------------------
GRID           1       0   0.0+0   0.0+0   0.0+0       0
GRID           2       0   1.4+0   0.0+0   0.0+0       0
GRID           3       0   1.4+0   1.0+0   0.0+0       0
GRID           4       0   0.0+0   1.0+0   0.0+0       0
GRID*                  5               0 1.7144488954-16           5.0-1*
*                 -1.0+0               0
GRID*                  6               0 1.7144488954-16           0.0+0*
*                 -1.0+0               0
GRID*                  7               0 1.7144488954-16           1.0+0*
*                 -1.0+0               0
GRID*                  8               0 8.5722444768-17           1.0+0*
*                 -5.0-1               0
GRID           9       0   7.0-1   0.0+0   0.0+0       0
GRID          10       0   1.4+0   5.0-1   0.0+0       0
GRID          11       0   7.0-1   1.0+0   0.0+0       0
GRID          12       0   0.0+0   5.0-1   0.0+0       0
GRID*                 13               0 8.5722444768-17           0.0+0*
*                 -5.0-1               0
GRID          14       0   3.5-1   0.0+0   0.0+0       0
GRID          15       0  1.05+0   0.0+0   0.0+0       0
GRID          16       0   1.4+0   2.5-1   0.0+0       0
GRID          17       0   1.4+0   7.5-1   0.0+0       0
GRID          18       0  1.05+0   1.0+0   0.0+0       0
GRID          19       0   3.5-1   1.0+0   0.0+0       0
GRID          20       0   0.0+0   7.5-1   0.0+0       0
GRID          21       0   0.0+0   2.5-1   0.0+0       0
GRID          22       0   7.0-1   5.0-1   0.0+0       0
GRID          23       0   3.5-1   5.0-1   0.0+0       0
GRID          24       0   7.0-1   2.5-1   0.0+0       0
GRID          25       0  1.05+0   5.0-1   0.0+0       0
GRID          26       0   7.0-1   7.5-1   0.0+0       0
GRID*                 27               0 4.2861222384-17           0.0+0*
*                 -2.5-1               0
GRID*                 28               0 1.2858366715-16           0.0+0*
*                 -7.5-1               0
GRID*                 29               0 1.7144488954-16           2.5-1*
*                 -1.0+0               0
GRID*                 30               0 1.7144488954-16           7.5-1*
*                 -1.0+0               0
GRID*                 31               0 1.2858366715-16           1.0+0*
*                 -7.5-1               0
GRID*                 32               0 4.2861222384-17           1.0+0*
*                 -2.5-1               0
GRID*                 33               0 8.5722444768-17           5.0-1*
*                 -5.0-1               0
GRID*                 34               0 4.2861222384-17           5.0-1*
*                 -2.5-1               0
GRID*                 35               0 8.5722444768-17           2.5-1*
*                 -5.0-1               0
GRID*                 36               0 1.2858366715-16           5.0-1*
*                 -7.5-1               0
GRID*                 37               0 8.5722444768-17           7.5-1*
*                 -5.0-1               0
GRID*                 38               0 4.2861222384-17           2.5-1*
*                 -2.5-1               0
GRID*                 39               0 1.2858366715-16           7.5-1*
*                 -7.5-1               0
GRID          40       0  1.05+0   2.5-1   0.0+0       0
GRID          41       0   3.5-1   7.5-1   0.0+0       0
GRID*                 42               0 1.2858366715-16           2.5-1*
*                 -7.5-1               0
GRID*                 43               0 4.2861222384-17           7.5-1*
*                 -2.5-1               0
GRID          44       0   3.5-1   2.5-1   0.0+0       0
GRID          45       0  1.05+0   7.5-1   0.0+0       0
GRID*                 46               0 2.1430611192-17           0.0+0*
*                -1.25-1               0
GRID*                 47               0 4.2861222384-17          1.25-1*
*                 -2.5-1               0
GRID*                 48               0 2.1430611192-17           2.5-1*
*                -1.25-1               0
GRID          49       0   0.0+0  1.25-1   0.0+0       0
GRID*                 50               0 2.1430611192-17          1.25-1*
*                -1.25-1               0
GRID*                 51               0 6.4291833576-17           0.0+0*
*                -3.75-1               0
GRID*                 52               0 8.5722444768-17          1.25-1*
*                 -5.0-1               0
GRID*                 53               0 6.4291833576-17           2.5-1*
*                -3.75-1               0
GRID*                 54               0 6.4291833576-17          1.25-1*
*                -3.75-1               0
GRID*                 55               0 8.5722444768-17          3.75-1*
*                 -5.0-1               0
GRID*                 56               0 6.4291833576-17           5.0-1*
*                -3.75-1               0
GRID*                 57               0 4.2861222384-17          3.75-1*
*                 -2.5-1               0
GRID*                 58               0 6.4291833576-17          3.75-1*
*                -3.75-1               0
GRID*                 59               0 2.1430611192-17           5.0-1*
*                -1.25-1               0
GRID          60       0   0.0+0  3.75-1   0.0+0       0
GRID*                 61               0 2.1430611192-17          3.75-1*
*                -1.25-1               0
GRID*                 62               0 1.0715305596-16           0.0+0*
*                -6.25-1               0
GRID*                 63               0 1.2858366715-16          1.25-1*
*                 -7.5-1               0
GRID*                 64               0 1.0715305596-16           2.5-1*
*                -6.25-1               0
GRID*                 65               0 1.0715305596-16          1.25-1*
*                -6.25-1               0
GRID*                 66               0 1.5001427834-16           0.0+0*
*                -8.75-1               0
GRID*                 67               0 1.7144488954-16          1.25-1*
*                 -1.0+0               0
GRID*                 68               0 1.5001427834-16           2.5-1*
*                -8.75-1               0
GRID*                 69               0 1.5001427834-16          1.25-1*
*                -8.75-1               0
GRID*                 70               0 1.7144488954-16          3.75-1*
*                 -1.0+0               0
GRID*                 71               0 1.5001427834-16           5.0-1*
*                -8.75-1               0
GRID*                 72               0 1.2858366715-16          3.75-1*
*                 -7.5-1               0
GRID*                 73               0 1.5001427834-16          3.75-1*
*                -8.75-1               0
GRID*                 74               0 1.0715305596-16           5.0-1*
*                -6.25-1               0
GRID*                 75               0 1.0715305596-16          3.75-1*
*                -6.25-1               0
GRID*                 76               0 1.2858366715-16          6.25-1*
*                 -7.5-1               0
GRID*                 77               0 1.0715305596-16           7.5-1*
*                -6.25-1               0
GRID*                 78               0 8.5722444768-17          6.25-1*
*                 -5.0-1               0
GRID*                 79               0 1.0715305596-16          6.25-1*
*                -6.25-1               0
GRID*                 80               0 1.7144488954-16          6.25-1*
*                 -1.0+0               0
$ ... 22 like lines cut
GRID          92       0   0.0+0  6.25-1   0.0+0       0
GRID*                 93               0 2.1430611192-17          6.25-1*
*                -1.25-1               0
GRID*                 94               0 6.4291833576-17           7.5-1*
*                -3.75-1               0
GRID*                 95               0 6.4291833576-17          6.25-1*
*                -3.75-1               0
GRID*                 96               0 6.4291833576-17           1.0+0*
*                -3.75-1               0
GRID*                 97               0 4.2861222384-17          8.75-1*
*                 -2.5-1               0
GRID*                 98               0 6.4291833576-17          8.75-1*
*                -3.75-1               0
GRID*                 99               0 2.1430611192-17           1.0+0*
*                -1.25-1               0
GRID         100       0   0.0+0  8.75-1   0.0+0       0
GRID*                101               0 2.1430611192-17          8.75-1*
*                -1.25-1               0
GRID         102       0  1.75-1   0.0+0   0.0+0       0
GRID         103       0   3.5-1  1.25-1   0.0+0       0
GRID         104       0  1.75-1   2.5-1   0.0+0       0
GRID         105       0  1.75-1  1.25-1   0.0+0       0
GRID         106       0  5.25-1   0.0+0   0.0+0       0
GRID         107       0   7.0-1  1.25-1   0.0+0       0
GRID         108       0  5.25-1   2.5-1   0.0+0       0
GRID         109       0  5.25-1  1.25-1   0.0+0       0
GRID         110       0   7.0-1  3.75-1   0.0+0       0
GRID         111       0  5.25-1   5.0-1   0.0+0       0
GRID         112       0   3.5-1  3.75-1   0.0+0       0
GRID         113       0  5.25-1  3.75-1   0.0+0       0
GRID         114       0  1.75-1   5.0-1   0.0+0       0
GRID         115       0  1.75-1  3.75-1   0.0+0       0
GRID         116       0  8.75-1   0.0+0   0.0+0       0
GRID         117       0  1.05+0  1.25-1   0.0+0       0
GRID         118       0  8.75-1   2.5-1   0.0+0       0
GRID         119       0  8.75-1  1.25-1   0.0+0       0
GRID         120       0 1.225+0   0.0+0   0.0+0       0
GRID         121       0   1.4+0  1.25-1   0.0+0       0
$ ... 32 like lines cut
PARAM   QUAD4TYP  MITC4+
PARAM    STR_CID      -2
$--1---><--2---><--3---><--4---><--5---><--6---><--7---><--8---><--9---><--10-->
$$$$$$$$$$$$$$$$$$$$$$$$$$$$$$$$$$$ Material $$$$$$$$$$$$$$$$$$$$$$$$$$$$$$$$$$$
MAT1*                  1          1.0+10           5.0+9           0.0+0*
*                  0.0+0           3.0-4        2.7315+2
$--1---><--2---><--3---><--4---><--5---><--6---><--7---><--8---><--9---><--10-->
SPC            1       1       1   0.0+0
SPC            1       1       2   0.0+0
SPC            1       1       3   0.0+0
SPC            1       1       4   0.0+0
SPC            1       1       5   0.0+0
SPC            1       1       6   0.0+0
SPC            1       2       1   0.0+0
SPC            1       2       2   0.0+0
SPC            1       2       3   0.0+0
SPC            1       2       4   0.0+0
SPC            1       2       5   0.0+0
SPC            1       2       6   0.0+0
SPC            1       3       1   0.0+0
SPC            1       3       2   0.0+0
SPC            1       3       3   0.0+0
SPC            1       3       4   0.0+0
SPC            1       3       5   0.0+0
SPC            1       3       6   0.0+0
SPC            1       4       1   0.0+0
SPC            1       4       2   0.0+0
$ ... 184 like lines cut
$--1---><--2---><--3---><--4---><--5---><--6---><--7---><--8---><--9---><--10-->
$$$$$$$$$$$$$$$$$$$$$$$$$$$$$$$$$$$ Default $$$$$$$$$$$$$$$$$$$$$$$$$$$$$$$$$$$$
PSHELL         1       1   1.0-2       1               1           0.0+0
CQUAD4         1       1      22     128     133     132   0.0+0   0.0+0
CQUAD4         2       1     128      25     130     133   0.0+0   0.0+0
CQUAD4         3       1     133     130      45     131   0.0+0   0.0+0
CQUAD4         4       1     132     133     131      26   0.0+0   0.0+0
CQUAD4         5       1      25     125     136     130   0.0+0   0.0+0
CQUAD4         6       1     125      10     134     136   0.0+0   0.0+0
CQUAD4         7       1     136     134      17     135   0.0+0   0.0+0
CQUAD4         8       1     130     136     135      45   0.0+0   0.0+0
CQUAD4         9       1      45     135     140     139   0.0+0   0.0+0
CQUAD4        10       1     135      17     137     140   0.0+0   0.0+0
CQUAD4        11       1     140     137       3     138   0.0+0   0.0+0
CQUAD4        12       1     139     140     138      18   0.0+0   0.0+0
CQUAD4        13       1      26     131     143     142   0.0+0   0.0+0
CQUAD4        14       1     131      45     139     143   0.0+0   0.0+0
CQUAD4        15       1     143     139      18     141   0.0+0   0.0+0
CQUAD4        16       1     142     143     141      11   0.0+0   0.0+0
CQUAD4        17       1      12     114     146      92   0.0+0   0.0+0
CQUAD4        18       1     114      23     144     146   0.0+0   0.0+0
CQUAD4        19       1     146     144      41     145   0.0+0   0.0+0
CQUAD4        20       1      92     146     145      20   0.0+0   0.0+0
$ ... 108 like lines cut
$--1---><--2---><--3---><--4---><--5---><--6---><--7---><--8---><--9---><--10-->
$$$$$$$$$$$$$$$$$$$$$$$$$$$$$$$$$ temperature $$$$$$$$$$$$$$$$$$$$$$$$$$$$$$$$$$
TEMP*                  4               1        3.5315+2                *
*
TEMP*                  4              46        3.5315+2                *
*
TEMP*                  4              50        3.5315+2                *
*
TEMP*                  4              49        3.5315+2                *
*
TEMP*                  4              27        3.5315+2                *
*
TEMP*                  4              47        3.5315+2                *
*
TEMP*                  4              38        3.5315+2                *
*
TEMP*                  4              48        3.5315+2                *
*
TEMP*                  4              21        3.5315+2                *
*
TEMP*                  4              51        3.5315+2                *
*
TEMP*                  4              54        3.5315+2                *
*
TEMP*                  4              13        3.5315+2                *
*
TEMP*                  4              52        3.5315+2                *
*
TEMP*                  4              35        3.5315+2                *
*
TEMP*                  4              53        3.5315+2                *
*
TEMP*                  4              58        3.5315+2                *
*
TEMP*                  4              57        3.5315+2                *
*
TEMP*                  4              55        3.5315+2                *
*
TEMP*                  4              33        3.5315+2                *
*
TEMP*                  4              56        3.5315+2                *
*
TEMP*                  4              34        3.5315+2                *
*
TEMP*                  4              61        3.5315+2                *
*
TEMP*                  4              60        3.5315+2                *
*
TEMP*                  4              59        3.5315+2                *
*
TEMP*                  4              12        3.5315+2                *
*
TEMP*                  4              62        3.5315+2                *
*
TEMP*                  4              65        3.5315+2                *
*
TEMP*                  4              28        3.5315+2                *
*
TEMP*                  4              63        3.5315+2                *
*
TEMP*                  4              42        3.5315+2                *
*
TEMP*                  4              64        3.5315+2                *
*
TEMP*                  4              66        3.5315+2                *
*
TEMP*                  4              69        3.5315+2                *
*
TEMP*                  4               6        3.5315+2                *
*
TEMP*                  4              67        3.5315+2                *
*
TEMP*                  4              29        3.5315+2                *
*
TEMP*                  4              68        3.5315+2                *
*
TEMP*                  4              73        3.5315+2                *
*
TEMP*                  4              72        3.5315+2                *
*
TEMP*                  4              70        3.5315+2                *
*
TEMP*                  4               5        3.5315+2                *
*
TEMP*                  4              71        3.5315+2                *
*
TEMP*                  4              36        3.5315+2                *
*
TEMP*                  4              75        3.5315+2                *
*
TEMP*                  4              74        3.5315+2                *
*
TEMP*                  4              79        3.5315+2                *
*
TEMP*                  4              78        3.5315+2                *
*
TEMP*                  4              76        3.5315+2                *
*
TEMP*                  4              39        3.5315+2                *
*
TEMP*                  4              77        3.5315+2                *
*
TEMP*                  4              37        3.5315+2                *
*
TEMP*                  4              82        3.5315+2                *
*
TEMP*                  4              80        3.5315+2                *
*
TEMP*                  4              30        3.5315+2                *
*
TEMP*                  4              81        3.5315+2                *
*
TEMP*                  4              86        3.5315+2                *
*
TEMP*                  4              85        3.5315+2                *
*
TEMP*                  4              83        3.5315+2                *
*
TEMP*                  4               7        3.5315+2                *
*
TEMP*                  4              84        3.5315+2                *
*
TEMP*                  4              31        3.5315+2                *
*
TEMP*                  4              89        3.5315+2                *
*
TEMP*                  4              88        3.5315+2                *
*
TEMP*                  4              87        3.5315+2                *
*
TEMP*                  4               8        3.5315+2                *
*
TEMP*                  4              93        3.5315+2                *
*
TEMP*                  4              92        3.5315+2                *
*
TEMP*                  4              90        3.5315+2                *
*
TEMP*                  4              43        3.5315+2                *
*
TEMP*                  4              91        3.5315+2                *
*
TEMP*                  4              20        3.5315+2                *
*
TEMP*                  4              95        3.5315+2                *
*
TEMP*                  4              94        3.5315+2                *
*
TEMP*                  4              98        3.5315+2                *
*
TEMP*                  4              97        3.5315+2                *
*
TEMP*                  4              96        3.5315+2                *
*
TEMP*                  4              32        3.5315+2                *
*
TEMP*                  4             101        3.5315+2                *
*
TEMP*                  4             100        3.5315+2                *
*
TEMP*                  4              99        3.5315+2                *
*
TEMP*                  4               4        3.5315+2                *
*
TEMP*                  4             102        3.5315+2                *
*
TEMP*                  4             105        3.5315+2                *
*
TEMP*                  4              14        3.5315+2                *
*
TEMP*                  4             103        3.5315+2                *
*
TEMP*                  4              44        3.5315+2                *
*
TEMP*                  4             104        3.5315+2                *
*
TEMP*                  4             106        3.5315+2                *
*
TEMP*                  4             109        3.5315+2                *
*
TEMP*                  4               9        3.5315+2                *
*
TEMP*                  4             107        3.5315+2                *
*
TEMP*                  4              24        3.5315+2                *
*
TEMP*                  4             108        3.5315+2                *
*
TEMP*                  4             113        3.5315+2                *
*
TEMP*                  4             112        3.5315+2                *
*
TEMP*                  4             110        3.5315+2                *
*
TEMP*                  4              22        3.5315+2                *
*
TEMP*                  4             111        3.5315+2                *
*
TEMP*                  4              23        3.5315+2                *
*
TEMP*                  4             115        3.5315+2                *
*
TEMP*                  4             114        3.5315+2                *
*
TEMP*                  4             116        3.5315+2                *
*
TEMP*                  4             119        3.5315+2                *
*
TEMP*                  4              15        3.5315+2                *
*
TEMP*                  4             117        3.5315+2                *
*
TEMP*                  4              40        3.5315+2                *
*
TEMP*                  4             118        3.5315+2                *
*
TEMP*                  4             120        3.5315+2                *
*
TEMP*                  4             123        3.5315+2                *
*
TEMP*                  4               2        3.5315+2                *
*
TEMP*                  4             121        3.5315+2                *
*
TEMP*                  4              16        3.5315+2                *
*
TEMP*                  4             122        3.5315+2                *
*
TEMP*                  4             127        3.5315+2                *
*
TEMP*                  4             126        3.5315+2                *
*
TEMP*                  4             124        3.5315+2                *
*
TEMP*                  4              10        3.5315+2                *
*
TEMP*                  4             125        3.5315+2                *
*
TEMP*                  4              25        3.5315+2                *
*
TEMP*                  4             129        3.5315+2                *
*
TEMP*                  4             128        3.5315+2                *
*
TEMP*                  4             133        3.5315+2                *
*
TEMP*                  4             132        3.5315+2                *
*
TEMP*                  4             130        3.5315+2                *
*
TEMP*                  4              45        3.5315+2                *
*
TEMP*                  4             131        3.5315+2                *
*
TEMP*                  4              26        3.5315+2                *
*
TEMP*                  4             136        3.5315+2                *
*
TEMP*                  4             134        3.5315+2                *
*
TEMP*                  4              17        3.5315+2                *
*
TEMP*                  4             135        3.5315+2                *
*
TEMP*                  4             140        3.5315+2                *
*
TEMP*                  4             139        3.5315+2                *
*
TEMP*                  4             137        3.5315+2                *
*
TEMP*                  4               3        3.5315+2                *
*
TEMP*                  4             138        3.5315+2                *
*
TEMP*                  4              18        3.5315+2                *
*
TEMP*                  4             143        3.5315+2                *
*
TEMP*                  4             142        3.5315+2                *
*
TEMP*                  4             141        3.5315+2                *
*
TEMP*                  4              11        3.5315+2                *
*
TEMP*                  4             146        3.5315+2                *
*
TEMP*                  4             144        3.5315+2                *
*
TEMP*                  4              41        3.5315+2                *
*
TEMP*                  4             145        3.5315+2                *
*
TEMP*                  4             148        3.5315+2                *
*
TEMP*                  4             147        3.5315+2                *
*
TEMP*                  4             151        3.5315+2                *
*
TEMP*                  4             150        3.5315+2                *
*
TEMP*                  4             149        3.5315+2                *
*
TEMP*                  4              19        3.5315+2                *
*
TEMP*                  4             153        3.5315+2                *
*
TEMP*                  4             152        3.5315+2                *
*
$--1---><--2---><--3---><--4---><--5---><--6---><--7---><--8---><--9---><--10-->
TEMPD*                 4        2.7315+2                                *
*
$--1---><--2---><--3---><--4---><--5---><--6---><--7---><--8---><--9---><--10-->
EIGRL          1                       4       0           1.0-3    MASS
ENDDATA 
