$ Generated by Mecway 33
$-----------------------EXECUTIVE CONTROL SECTION-----------------------
SOL 101
CEND
$-------------------------CASE CONTROL SECTION--------------------------
DISPLACEMENT = ALL
SPCFORCES = ALL
MPCFORCES = ALL
STRESS(CORNER) = ALL
STRAIN(CORNER,FIBER) = ALL
FORCE(CORNER) = ALL
SPC = 1
TEMPERATURE = 4
BEGIN BULK
$---------------------------BULK DATA SECTION---------------------------
GRID*                  1               0 2.81907786236+0           5.0+0*
*        1.02606042998+0               0
GRID*                  2               0 2.59807621135+0           4.5+0*
*                  1.5+0               0
GRID*                  3               0-1.02606042998+0           4.5+0*
*        2.81907786236+0               0
GRID           4       0   3.0+0   3.0+0   0.0+0       0
GRID*                  5               0          -1.5+0           1.0+0*
*        2.59807621135+0               0
GRID*                  6               0-1.72072930905+0          4.25+0*
*        2.45745613287+0               0
GRID*                  7               0-2.12132034356+0          4.25+0*
*        2.12132034356+0               0
GRID*                  8               0-2.12132034356+0          3.75+0*
*        2.12132034356+0               0
GRID*                  9               0-1.92836282906+0           4.0+0*
*        2.29813332936+0               0
GRID*                 10               0-2.71892336111+0          6.25+0*
*        1.26785478522+0               0
GRID*                 11               0-5.20944533001-1           2.0+0*
*        2.95442325904+0               0
GRID*                 12               0-2.71892336111+0          6.75+0*
*        1.26785478522+0               0
GRID*                 13               0-5.20944533001-1           4.0+0*
*        2.95442325904+0               0
GRID*                 14               0-2.89777747887+0          6.75+0*
*        7.76457135308-1               0
GRID*                 15               0 5.20944533001-1           1.0+0*
*        2.95442325904+0               0
GRID*                 16               0 5.20944533001-1           3.0+0*
*        2.95442325904+0               0
GRID          17       0  -3.0+0   2.0+0   0.0+0       0
GRID*                 18               0-2.81907786236+0           1.0+0*
*        1.02606042998+0               0
GRID*                 19               0-2.81907786236+0           3.0+0*
*        1.02606042998+0               0
GRID*                 20               0-2.89777747887+0          6.25+0*
*        7.76457135308-1               0
GRID*                 21               0-2.29813332936+0           2.0+0*
*        1.92836282906+0               0
GRID*                 22               0-2.29813332936+0           4.0+0*
*        1.92836282906+0               0
GRID*                 23               0-2.81907786236+0           7.0+0*
*        1.02606042998+0               0
GRID*                 24               0-2.81907786236+0           6.5+0*
*        1.02606042998+0               0
GRID*                 25               0-2.98858409428+0          3.75+0*
*        2.61467228243-1               0
GRID*                 26               0-2.89777747887+0          3.75+0*
*        7.76457135308-1               0
GRID*                 27               0-2.29813332936+0           6.0+0*
*        1.92836282906+0               0
GRID*                 28               0-2.89777747887+0          4.25+0*
*        7.76457135308-1               0
GRID*                 29               0-2.98858409428+0          4.25+0*
*        2.61467228243-1               0
GRID*                 30               0-1.92836282906+0           4.5+0*
*        2.29813332936+0               0
GRID*                 31               0          -1.5+0           4.0+0*
*        2.59807621135+0               0
GRID*                 32               0 2.95442325904+0           2.5+0*
*        5.20944533001-1               0
GRID*                 33               0-2.81907786236+0           1.5+1*
*        1.02606042998+0               0
GRID*                 34               0 2.29813332936+0           1.7+1*
*        1.92836282906+0               0
GRID*                 35               0 2.95442325904+0           3.5+0*
*        5.20944533001-1               0
GRID*                 36               0 2.59807621135+0           3.5+0*
*                  1.5+0               0
GRID*                 37               0 2.59807621135+0           2.5+0*
*                  1.5+0               0
$ ... 40 like lines cut
GRID          58       0  -3.0+0   6.0+0   0.0+0       0
GRID*                 59               0          -1.5+0           5.0+0*
*        2.59807621135+0               0
GRID          60       0   3.0+0   5.0+0   0.0+0       0
GRID*                 61               0          -1.5+0           7.0+0*
*        2.59807621135+0               0
GRID*                 62               0-2.95442325904+0           4.0+0*
*        5.20944533001-1               0
GRID*                 63               0-1.0146150039-15           5.5+0*
*                  3.0+0               0
GRID*                 64               0-1.02606042998+0           5.5+0*
*        2.81907786236+0               0
GRID*                 65               0 2.89777747887+0          4.25+0*
*        7.76457135308-1               0
GRID          66       0  -3.0+0   4.0+0   0.0+0       0
GRID*                 67               0-5.20944533001-1           5.0+0*
*        2.95442325904+0               0
GRID*                 68               0 2.81907786236+0           2.0+0*
*        1.02606042998+0               0
GRID*                 69               0 2.89777747887+0          4.75+0*
*        7.76457135308-1               0
GRID*                 70               0 2.71892336111+0          4.25+0*
*        1.26785478522+0               0
GRID*                 71               0 2.81907786236+0           4.5+0*
*        1.02606042998+0               0
GRID*                 72               0 2.98858409428+0          4.75+0*
*        2.61467228243-1               0
GRID*                 73               0 2.98858409428+0          5.25+0*
*        2.61467228243-1               0
GRID*                 74               0 2.95442325904+0           5.0+0*
*        5.20944533001-1               0
GRID*                 75               0 1.26785478522+0          6.25+0*
*        2.71892336111+0               0
GRID*                 76               0 1.72072930905+0          6.25+0*
*        2.45745613287+0               0
GRID*                 77               0 1.26785478522+0          2.75+0*
*        2.71892336111+0               0
GRID*                 78               0 2.89777747887+0          3.25+0*
*        7.76457135308-1               0
GRID*                 79               0 2.89777747887+0          3.75+0*
*        7.76457135308-1               0
GRID*                 80               0 2.71892336111+0          3.25+0*
*        1.26785478522+0               0
GRID*                 81               0 2.81907786236+0           3.5+0*
*        1.02606042998+0               0
GRID*                 82               0 2.12132034356+0          1.75+0*
*        2.12132034356+0               0
GRID*                 83               0 2.12132034356+0          2.25+0*
*        2.12132034356+0               0
GRID*                 84               0 1.72072930905+0          1.75+0*
*        2.45745613287+0               0
GRID*                 85               0 1.92836282906+0           2.0+0*
*        2.29813332936+0               0
GRID*                 86               0-2.61467228243-1          2.75+0*
*        2.98858409428+0               0
$ ... 236 like lines cut
GRID         205       0   0.0+0   1.5+0   3.0+0       0
GRID*                206               0 5.20944533001-1           2.0+0*
*        2.95442325904+0               0
GRID*                207               0 1.92836282906+0           3.5+0*
*        2.29813332936+0               0
GRID*                208               0 1.02606042998+0           3.5+0*
*        2.81907786236+0               0
GRID*                209               0           1.5+0           3.0+0*
*        2.59807621135+0               0
GRID*                210               0-2.12132034356+0          4.75+0*
*        2.12132034356+0               0
GRID*                211               0-1.92836282906+0           5.0+0*
*        2.29813332936+0               0
GRID*                212               0-2.71892336111+0          5.25+0*
*        1.26785478522+0               0
GRID*                213               0-2.59807621135+0           5.5+0*
*                  1.5+0               0
GRID*                214               0 2.95442325904+0           4.5+0*
*        5.20944533001-1               0
GRID*                215               0-2.71892336111+0          5.75+0*
*        1.26785478522+0               0
GRID*                216               0-2.59807621135+0           6.5+0*
*                  1.5+0               0
GRID*                217               0-2.95442325904+0           6.5+0*
*        5.20944533001-1               0
GRID*                218               0-2.81907786236+0           6.0+0*
*        1.02606042998+0               0
GRID*                219               0-2.59807621135+0           4.5+0*
*                  1.5+0               0
GRID*                220               0-2.81907786236+0           4.0+0*
*        1.02606042998+0               0
GRID*                221               0-2.89777747887+0          5.75+0*
*        7.76457135308-1               0
GRID*                222               0-2.89777747887+0          5.25+0*
*        7.76457135308-1               0
GRID*                223               0-2.81907786236+0           5.5+0*
*        1.02606042998+0               0
GRID*                224               0 2.95442325904+0           5.5+0*
*        5.20944533001-1               0
GRID*                225               0-2.45745613287+0          5.75+0*
*        1.72072930905+0               0
$ ... 8 like lines cut
GRID         230       0   3.0+0   1.3+1   0.0+0       0
GRID*                231               0          -1.5+0           1.1+1*
*        2.59807621135+0               0
GRID*                232               0 2.61467228243-1          6.25+0*
*        2.98858409428+0               0
GRID*                233               0          -1.5+0           1.3+1*
*        2.59807621135+0               0
GRID*                234               0 5.20944533001-1           6.5+0*
*        2.95442325904+0               0
GRID*                235               0 2.89777747887+0          2.25+0*
*        7.76457135308-1               0
GRID*                236               0 2.89777747887+0          2.75+0*
*        7.76457135308-1               0
GRID*                237               0-5.20944533001-1           1.2+1*
*        2.95442325904+0               0
GRID         238       0  -3.0+0   1.6+1   0.0+0       0
GRID*                239               0-5.20944533001-1           1.4+1*
*        2.95442325904+0               0
GRID*                240               0          -1.5+0           1.5+1*
*        2.59807621135+0               0
GRID*                241               0 5.20944533001-1           1.1+1*
*        2.95442325904+0               0
GRID*                242               0 5.20944533001-1           1.3+1*
*        2.95442325904+0               0
GRID         243       0  -3.0+0   1.2+1   0.0+0       0
GRID*                244               0-2.81907786236+0           1.1+1*
*        1.02606042998+0               0
GRID*                245               0-2.81907786236+0           1.3+1*
*        1.02606042998+0               0
GRID*                246               0 2.71892336111+0          2.75+0*
*        1.26785478522+0               0
GRID*                247               0-2.29813332936+0           1.2+1*
*        1.92836282906+0               0
GRID*                248               0-2.29813332936+0           1.4+1*
*        1.92836282906+0               0
GRID*                249               0-2.81907786236+0           1.7+1*
*        1.02606042998+0               0
GRID         250       0   3.0+0   1.5+1   0.0+0       0
GRID*                251               0 2.71892336111+0          2.25+0*
*        1.26785478522+0               0
GRID*                252               0          -1.5+0           1.7+1*
*        2.59807621135+0               0
GRID*                253               0-2.29813332936+0           1.6+1*
*        1.92836282906+0               0
GRID*                254               0 2.81907786236+0           2.5+0*
*        1.02606042998+0               0
GRID*                255               0 2.59807621135+0           3.0+0*
*                  1.5+0               0
GRID*                256               0-7.76457135308-1          4.25+0*
*        2.89777747887+0               0
GRID*                257               0-2.61467228243-1          3.25+0*
*        2.98858409428+0               0
GRID*                258               0-2.61467228243-1          3.75+0*
*        2.98858409428+0               0
GRID         259       0  -3.0+0   1.4+1   0.0+0       0
GRID*                260               0-7.76457135308-1          3.75+0*
*        2.89777747887+0               0
GRID*                261               0-5.20944533001-1           3.5+0*
*        2.95442325904+0               0
GRID*                262               0-7.76457135308-1          5.25+0*
*        2.89777747887+0               0
GRID*                263               0-1.26785478522+0          4.75+0*
*        2.71892336111+0               0
GRID*                264               0-1.02606042998+0           5.0+0*
*        2.81907786236+0               0
GRID*                265               0           1.5+0           1.2+1*
*        2.59807621135+0               0
GRID*                266               0 5.20944533001-1           1.5+1*
*        2.95442325904+0               0
GRID*                267               0-5.20944533001-1           1.6+1*
*        2.95442325904+0               0
GRID*                268               0 2.81907786236+0           1.2+1*
*        1.02606042998+0               0
GRID*                269               0-2.61467228243-1          5.25+0*
*        2.98858409428+0               0
GRID*                270               0           1.5+0           1.4+1*
*        2.59807621135+0               0
GRID*                271               0 5.20944533001-1           1.7+1*
*        2.95442325904+0               0
GRID*                272               0           1.5+0           1.6+1*
*        2.59807621135+0               0
GRID*                273               0-2.61467228243-1          5.75+0*
*        2.98858409428+0               0
GRID*                274               0 2.29813332936+0           1.3+1*
*        1.92836282906+0               0
GRID*                275               0 2.29813332936+0           1.1+1*
*        1.92836282906+0               0
GRID*                276               0 2.29813332936+0           1.5+1*
*        1.92836282906+0               0
GRID*                277               0-5.20944533001-1           5.5+0*
*        2.95442325904+0               0
GRID*                278               0-5.20944533001-1           4.5+0*
*        2.95442325904+0               0
GRID*                279               0-1.72072930905+0          3.75+0*
*        2.45745613287+0               0
$ ... 246 like lines cut
PARAM   QUAD4TYP  MITC4+
PARAM    STR_CID      -2
$--1---><--2---><--3---><--4---><--5---><--6---><--7---><--8---><--9---><--10-->
$$$$$$$$$$$$$$$$$$$$$$$$$$$$$$$$$$$ Material $$$$$$$$$$$$$$$$$$$$$$$$$$$$$$$$$$$
MAT8*                  1          2.0+11          1.5+11           3.0-1*
*        7.6923076923+10          1.0+11          1.0+11           0.0+0*
*                  7.0-4           2.0-4        2.7315+2                *
*
$--1---><--2---><--3---><--4---><--5---><--6---><--7---><--8---><--9---><--10-->
SPC            1       4       1   0.0+0
SPC            1       4       3   0.0+0
SPC            1      17       3   0.0+0
SPC            1      58       3   0.0+0
SPC            1      60       1   0.0+0
SPC            1      60       3   0.0+0
SPC            1      66       3   0.0+0
SPC            1      66       2   0.0+0
SPC            1     230       1   0.0+0
SPC            1     230       3   0.0+0
SPC            1     238       3   0.0+0
SPC            1     243       3   0.0+0
SPC            1     250       1   0.0+0
SPC            1     250       3   0.0+0
SPC            1     259       3   0.0+0
SPC            1     259       2   0.0+0
$--1---><--2---><--3---><--4---><--5---><--6---><--7---><--8---><--9---><--10-->
$$$$$$$$$$$$$$$$$$$$$$$$$$$$$$$$$$$ Default $$$$$$$$$$$$$$$$$$$$$$$$$$$$$$$$$$$$
PSHELL         1       1   1.0-1       1               1           0.0+0
CQUAD4*                1               1             119              57*
*                    144             146 4.62843710988+1           0.0+0
CQUAD4*                2               1             313             314*
*                    340              50 1.33715628901+2           0.0+0
CQUAD4*                3               1             306             307*
*                    305              31 4.62843710988+1           0.0+0
CQUAD4*                4               1              74              73*
*                    224             351 4.62843710988+1           0.0+0
CQUAD4*                5               1             107             347*
*                    372             324 1.33715628901+2           0.0+0
CQUAD4*                6               1             347             208*
*                    170             372 1.33715628901+2           0.0+0
CQUAD4*                7               1             372             170*
*                     44             359 1.33715628901+2           0.0+0
CQUAD4*                8               1             324             372*
*                    359             106 1.33715628901+2           0.0+0
CQUAD4*                9               1             350             348*
*                    107             323 1.33715628901+2           0.0+0
CQUAD4*               10               1             288             130*
*                    312             314 1.33715628901+2           0.0+0
CQUAD4*               11               1             402             160*
*                    158             209 4.62843710988+1           0.0+0
CQUAD4*               12               1              13             396*
*                    278             256 4.62843710988+1           0.0+0
CQUAD4*               13               1              40             330*
*                    377             376 4.62843710988+1           0.0+0
CQUAD4*               14               1             330             102*
*                    299             377 4.62843710988+1           0.0+0
CQUAD4*               15               1             377             299*
*                    105             315 4.62843710988+1           0.0+0
CQUAD4*               16               1             376             377*
*                    315              63 4.62843710988+1           0.0+0
CQUAD4*               17               1             101             202*
*                    379             343 4.62843710988+1           0.0+0
CQUAD4*               18               1             202              98*
*                    378             379 4.62843710988+1           0.0+0
CQUAD4*               19               1             379             378*
*                     27             225 4.62843710988+1           0.0+0
CQUAD4*               20               1             343             379*
*                    225             213 4.62843710988+1           0.0+0
$ ... 640 like lines cut
$--1---><--2---><--3---><--4---><--5---><--6---><--7---><--8---><--9---><--10-->
$$$$$$$$$$$$$$$$$$$$$$$$$$$$$$$$$ temperature $$$$$$$$$$$$$$$$$$$$$$$$$$$$$$$$$$
TEMP*                  4             107        3.7315+2                *
*
TEMP*                  4             347        3.7315+2                *
*
TEMP*                  4             372        3.7315+2                *
*
TEMP*                  4             324        3.7315+2                *
*
TEMP*                  4             208        3.7315+2                *
*
TEMP*                  4             170        3.7315+2                *
*
TEMP*                  4              44        3.7315+2                *
*
TEMP*                  4             359        3.7315+2                *
*
TEMP*                  4             106        3.7315+2                *
*
TEMP*                  4              40        3.7315+2                *
*
TEMP*                  4             330        3.7315+2                *
*
TEMP*                  4             377        3.7315+2                *
*
TEMP*                  4             376        3.7315+2                *
*
TEMP*                  4             102        3.7315+2                *
*
TEMP*                  4             299        3.7315+2                *
*
TEMP*                  4             105        3.7315+2                *
*
TEMP*                  4             315        3.7315+2                *
*
TEMP*                  4              63        3.7315+2                *
*
TEMP*                  4             101        3.7315+2                *
*
TEMP*                  4             202        3.7315+2                *
*
TEMP*                  4             379        3.7315+2                *
*
TEMP*                  4             343        3.7315+2                *
*
TEMP*                  4              98        3.7315+2                *
*
TEMP*                  4             378        3.7315+2                *
*
TEMP*                  4              27        3.7315+2                *
*
TEMP*                  4             225        3.7315+2                *
*
TEMP*                  4             213        3.7315+2                *
*
TEMP*                  4             375        3.7315+2                *
*
TEMP*                  4             381        3.7315+2                *
*
TEMP*                  4             100        3.7315+2                *
*
TEMP*                  4             370        3.7315+2                *
*
TEMP*                  4              97        3.7315+2                *
*
TEMP*                  4             380        3.7315+2                *
*
TEMP*                  4             249        3.7315+2                *
*
TEMP*                  4             238        3.7315+2                *
*
TEMP*                  4              33        3.7315+2                *
*
TEMP*                  4             253        3.7315+2                *
*
TEMP*                  4             265        3.7315+2                *
*
TEMP*                  4             275        3.7315+2                *
*
TEMP*                  4             268        3.7315+2                *
*
TEMP*                  4             274        3.7315+2                *
*
TEMP*                  4             110        3.7315+2                *
*
TEMP*                  4             386        3.7315+2                *
*
TEMP*                  4             388        3.7315+2                *
*
TEMP*                  4             329        3.7315+2                *
*
TEMP*                  4             109        3.7315+2                *
*
TEMP*                  4             387        3.7315+2                *
*
TEMP*                  4              46        3.7315+2                *
*
TEMP*                  4             298        3.7315+2                *
*
TEMP*                  4             108        3.7315+2                *
*
TEMP*                  4             313        3.7315+2                *
*
TEMP*                  4             390        3.7315+2                *
*
TEMP*                  4             358        3.7315+2                *
*
TEMP*                  4              50        3.7315+2                *
*
TEMP*                  4             389        3.7315+2                *
*
TEMP*                  4             339        3.7315+2                *
*
TEMP*                  4             392        3.7315+2                *
*
TEMP*                  4              90        3.7315+2                *
*
TEMP*                  4             296        3.7315+2                *
*
TEMP*                  4             129        3.7315+2                *
*
TEMP*                  4             391        3.7315+2                *
*
TEMP*                  4             207        3.7315+2                *
*
TEMP*                  4             157        3.7315+2                *
*
TEMP*                  4             394        3.7315+2                *
*
TEMP*                  4             287        3.7315+2                *
*
TEMP*                  4              48        3.7315+2                *
*
TEMP*                  4             393        3.7315+2                *
*
TEMP*                  4              36        3.7315+2                *
*
TEMP*                  4             317        3.7315+2                *
*
TEMP*                  4             130        3.7315+2                *
*
TEMP*                  4             395        3.7315+2                *
*
TEMP*                  4             293        3.7315+2                *
*
TEMP*                  4             121        3.7315+2                *
*
TEMP*                  4              76        3.7315+2                *
*
TEMP*                  4             276        3.7315+2                *
*
TEMP*                  4             191        3.7315+2                *
*
TEMP*                  4             250        3.7315+2                *
*
TEMP*                  4             228        3.7315+2                *
*
TEMP*                  4              38        3.7315+2                *
*
TEMP*                  4              78        3.7315+2                *
*
TEMP*                  4              81        3.7315+2                *
*
TEMP*                  4              80        3.7315+2                *
*
TEMP*                  4              35        3.7315+2                *
*
TEMP*                  4              79        3.7315+2                *
*
TEMP*                  4              54        3.7315+2                *
*
TEMP*                  4             318        3.7315+2                *
*
TEMP*                  4              47        3.7315+2                *
*
TEMP*                  4              82        3.7315+2                *
*
TEMP*                  4              85        3.7315+2                *
*
TEMP*                  4              84        3.7315+2                *
*
TEMP*                  4              53        3.7315+2                *
*
TEMP*                  4              83        3.7315+2                *
*
TEMP*                  4             230        3.7315+2                *
*
TEMP*                  4              43        3.7315+2                *
*
TEMP*                  4             401        3.7315+2                *
*
TEMP*                  4              39        3.7315+2                *
*
TEMP*                  4              11        3.7315+2                *
*
TEMP*                  4             397        3.7315+2                *
*
TEMP*                  4              87        3.7315+2                *
*
TEMP*                  4             124        3.7315+2                *
*
TEMP*                  4             196        3.7315+2                *
*
TEMP*                  4              86        3.7315+2                *
*
TEMP*                  4             199        3.7315+2                *
*
TEMP*                  4             304        3.7315+2                *
*
TEMP*                  4             154        3.7315+2                *
*
TEMP*                  4              31        3.7315+2                *
*
TEMP*                  4             305        3.7315+2                *
*
TEMP*                  4              88        3.7315+2                *
*
TEMP*                  4               6        3.7315+2                *
*
TEMP*                  4               3        3.7315+2                *
*
TEMP*                  4             263        3.7315+2                *
*
TEMP*                  4              59        3.7315+2                *
*
TEMP*                  4             201        3.7315+2                *
*
TEMP*                  4              30        3.7315+2                *
*
TEMP*                  4              89        3.7315+2                *
*
TEMP*                  4              92        3.7315+2                *
*
TEMP*                  4              37        3.7315+2                *
*
TEMP*                  4              91        3.7315+2                *
*
TEMP*                  4             137        3.7315+2                *
*
TEMP*                  4             220        3.7315+2                *
*
TEMP*                  4              93        3.7315+2                *
*
TEMP*                  4              94        3.7315+2                *
*
TEMP*                  4             364        3.7315+2                *
*
TEMP*                  4             186        3.7315+2                *
*
TEMP*                  4             139        3.7315+2                *
*
TEMP*                  4              22        3.7315+2                *
*
TEMP*                  4             361        3.7315+2                *
*
TEMP*                  4             219        3.7315+2                *
*
TEMP*                  4             134        3.7315+2                *
*
TEMP*                  4             221        3.7315+2                *
*
TEMP*                  4             111        3.7315+2                *
*
TEMP*                  4              99        3.7315+2                *
*
TEMP*                  4             218        3.7315+2                *
*
TEMP*                  4              20        3.7315+2                *
*
TEMP*                  4             217        3.7315+2                *
*
TEMP*                  4              95        3.7315+2                *
*
TEMP*                  4              58        3.7315+2                *
*
TEMP*                  4             190        3.7315+2                *
*
TEMP*                  4             115        3.7315+2                *
*
TEMP*                  4             135        3.7315+2                *
*
TEMP*                  4             117        3.7315+2                *
*
TEMP*                  4             195        3.7315+2                *
*
TEMP*                  4             335        3.7315+2                *
*
TEMP*                  4             141        3.7315+2                *
*
TEMP*                  4             116        3.7315+2                *
*
TEMP*                  4              17        3.7315+2                *
*
TEMP*                  4              55        3.7315+2                *
*
TEMP*                  4             326        3.7315+2                *
*
TEMP*                  4             136        3.7315+2                *
*
TEMP*                  4             193        3.7315+2                *
*
TEMP*                  4             269        3.7315+2                *
*
TEMP*                  4              67        3.7315+2                *
*
TEMP*                  4              18        3.7315+2                *
*
TEMP*                  4             162        3.7315+2                *
*
TEMP*                  4             165        3.7315+2                *
*
TEMP*                  4             164        3.7315+2                *
*
TEMP*                  4             189        3.7315+2                *
*
TEMP*                  4             163        3.7315+2                *
*
TEMP*                  4             166        3.7315+2                *
*
TEMP*                  4             167        3.7315+2                *
*
TEMP*                  4              21        3.7315+2                *
*
TEMP*                  4             149        3.7315+2                *
*
TEMP*                  4             187        3.7315+2                *
*
TEMP*                  4             332        3.7315+2                *
*
TEMP*                  4             148        3.7315+2                *
*
TEMP*                  4             169        3.7315+2                *
*
TEMP*                  4             333        3.7315+2                *
*
TEMP*                  4             188        3.7315+2                *
*
TEMP*                  4             140        3.7315+2                *
*
TEMP*                  4             168        3.7315+2                *
*
TEMP*                  4              19        3.7315+2                *
*
TEMP*                  4              32        3.7315+2                *
*
TEMP*                  4             171        3.7315+2                *
*
TEMP*                  4             173        3.7315+2                *
*
TEMP*                  4             236        3.7315+2                *
*
TEMP*                  4               4        3.7315+2                *
*
TEMP*                  4             172        3.7315+2                *
*
TEMP*                  4              49        3.7315+2                *
*
TEMP*                  4             174        3.7315+2                *
*
TEMP*                  4             177        3.7315+2                *
*
TEMP*                  4             176        3.7315+2                *
*
TEMP*                  4              42        3.7315+2                *
*
TEMP*                  4             175        3.7315+2                *
*
TEMP*                  4             182        3.7315+2                *
*
TEMP*                  4             184        3.7315+2                *
*
TEMP*                  4              68        3.7315+2                *
*
TEMP*                  4             251        3.7315+2                *
*
TEMP*                  4             142        3.7315+2                *
*
TEMP*                  4             185        3.7315+2                *
*
TEMP*                  4             192        3.7315+2                *
*
TEMP*                  4              26        3.7315+2                *
*
TEMP*                  4             270        3.7315+2                *
*
TEMP*                  4             286        3.7315+2                *
*
TEMP*                  4             200        3.7315+2                *
*
TEMP*                  4              16        3.7315+2                *
*
TEMP*                  4             346        3.7315+2                *
*
TEMP*                  4             197        3.7315+2                *
*
TEMP*                  4             257        3.7315+2                *
*
TEMP*                  4             246        3.7315+2                *
*
TEMP*                  4             255        3.7315+2                *
*
TEMP*                  4             248        3.7315+2                *
*
TEMP*                  4             233        3.7315+2                *
*
TEMP*                  4             239        3.7315+2                *
*
TEMP*                  4             240        3.7315+2                *
*
TEMP*                  4             245        3.7315+2                *
*
TEMP*                  4             247        3.7315+2                *
*
TEMP*                  4             266        3.7315+2                *
*
TEMP*                  4             267        3.7315+2                *
*
TEMP*                  4             243        3.7315+2                *
*
TEMP*                  4             244        3.7315+2                *
*
TEMP*                  4             272        3.7315+2                *
*
TEMP*                  4             271        3.7315+2                *
*
TEMP*                  4             252        3.7315+2                *
*
TEMP*                  4             237        3.7315+2                *
*
TEMP*                  4             242        3.7315+2                *
*
TEMP*                  4             259        3.7315+2                *
*
TEMP*                  4             231        3.7315+2                *
*
TEMP*                  4              34        3.7315+2                *
*
TEMP*                  4             241        3.7315+2                *
*
TEMP*                  4             203        3.7315+2                *
*
TEMP*                  4             280        3.7315+2                *
*
TEMP*                  4             284        3.7315+2                *
*
TEMP*                  4             283        3.7315+2                *
*
TEMP*                  4             281        3.7315+2                *
*
TEMP*                  4             204        3.7315+2                *
*
TEMP*                  4             282        3.7315+2                *
*
TEMP*                  4             206        3.7315+2                *
*
TEMP*                  4             303        3.7315+2                *
*
TEMP*                  4             301        3.7315+2                *
*
TEMP*                  4             285        3.7315+2                *
*
TEMP*                  4             321        3.7315+2                *
*
TEMP*                  4             320        3.7315+2                *
*
TEMP*                  4             308        3.7315+2                *
*
TEMP*                  4             198        3.7315+2                *
*
TEMP*                  4             309        3.7315+2                *
*
TEMP*                  4              57        3.7315+2                *
*
TEMP*                  4              15        3.7315+2                *
*
TEMP*                  4             352        3.7315+2                *
*
TEMP*                  4             355        3.7315+2                *
*
TEMP*                  4             354        3.7315+2                *
*
TEMP*                  4             353        3.7315+2                *
*
TEMP*                  4             205        3.7315+2                *
*
TEMP*                  4             400        3.7315+2                *
*
TEMP*                  4             398        3.7315+2                *
*
TEMP*                  4             112        3.7315+2                *
*
TEMP*                  4             402        3.7315+2                *
*
TEMP*                  4             209        3.7315+2                *
*
TEMP*                  4              77        3.7315+2                *
*
TEMP*                  4             160        3.7315+2                *
*
TEMP*                  4             158        3.7315+2                *
*
TEMP*                  4             179        3.7315+2                *
*
TEMP*                  4             178        3.7315+2                *
*
TEMP*                  4             161        3.7315+2                *
*
TEMP*                  4             181        3.7315+2                *
*
TEMP*                  4             180        3.7315+2                *
*
TEMP*                  4             336        3.7315+2                *
*
TEMP*                  4             334        3.7315+2                *
*
TEMP*                  4               2        3.7315+2                *
*
TEMP*                  4             337        3.7315+2                *
*
TEMP*                  4             341        3.7315+2                *
*
TEMP*                  4             340        3.7315+2                *
*
TEMP*                  4               1        3.7315+2                *
*
TEMP*                  4             338        3.7315+2                *
*
TEMP*                  4             351        3.7315+2                *
*
TEMP*                  4             363        3.7315+2                *
*
TEMP*                  4             224        3.7315+2                *
*
TEMP*                  4             356        3.7315+2                *
*
TEMP*                  4              56        3.7315+2                *
*
TEMP*                  4             357        3.7315+2                *
*
TEMP*                  4             368        3.7315+2                *
*
TEMP*                  4             371        3.7315+2                *
*
TEMP*                  4              96        3.7315+2                *
*
TEMP*                  4             302        3.7315+2                *
*
TEMP*                  4              61        3.7315+2                *
*
TEMP*                  4             369        3.7315+2                *
*
TEMP*                  4             373        3.7315+2                *
*
TEMP*                  4             383        3.7315+2                *
*
TEMP*                  4             382        3.7315+2                *
*
TEMP*                  4              64        3.7315+2                *
*
TEMP*                  4             374        3.7315+2                *
*
TEMP*                  4             384        3.7315+2                *
*
TEMP*                  4             385        3.7315+2                *
*
TEMP*                  4              41        3.7315+2                *
*
TEMP*                  4             310        3.7315+2                *
*
TEMP*                  4              13        3.7315+2                *
*
TEMP*                  4             396        3.7315+2                *
*
TEMP*                  4             278        3.7315+2                *
*
TEMP*                  4             256        3.7315+2                *
*
TEMP*                  4             194        3.7315+2                *
*
TEMP*                  4             183        3.7315+2                *
*
TEMP*                  4             279        3.7315+2                *
*
TEMP*                  4               9        3.7315+2                *
*
TEMP*                  4               8        3.7315+2                *
*
TEMP*                  4               7        3.7315+2                *
*
TEMP*                  4              10        3.7315+2                *
*
TEMP*                  4              24        3.7315+2                *
*
TEMP*                  4             216        3.7315+2                *
*
TEMP*                  4              12        3.7315+2                *
*
TEMP*                  4              23        3.7315+2                *
*
TEMP*                  4              14        3.7315+2                *
*
TEMP*                  4              66        3.7315+2                *
*
TEMP*                  4              25        3.7315+2                *
*
TEMP*                  4              62        3.7315+2                *
*
TEMP*                  4              29        3.7315+2                *
*
TEMP*                  4              28        3.7315+2                *
*
TEMP*                  4             133        3.7315+2                *
*
TEMP*                  4              65        3.7315+2                *
*
TEMP*                  4              71        3.7315+2                *
*
TEMP*                  4              70        3.7315+2                *
*
TEMP*                  4             214        3.7315+2                *
*
TEMP*                  4              69        3.7315+2                *
*
TEMP*                  4              72        3.7315+2                *
*
TEMP*                  4              74        3.7315+2                *
*
TEMP*                  4              60        3.7315+2                *
*
TEMP*                  4              73        3.7315+2                *
*
TEMP*                  4             159        3.7315+2                *
*
TEMP*                  4             118        3.7315+2                *
*
TEMP*                  4             122        3.7315+2                *
*
TEMP*                  4             120        3.7315+2                *
*
TEMP*                  4             119        3.7315+2                *
*
TEMP*                  4             155        3.7315+2                *
*
TEMP*                  4             153        3.7315+2                *
*
TEMP*                  4             123        3.7315+2                *
*
TEMP*                  4             126        3.7315+2                *
*
TEMP*                  4             125        3.7315+2                *
*
TEMP*                  4               5        3.7315+2                *
*
TEMP*                  4             127        3.7315+2                *
*
TEMP*                  4             132        3.7315+2                *
*
TEMP*                  4             131        3.7315+2                *
*
TEMP*                  4             128        3.7315+2                *
*
TEMP*                  4             156        3.7315+2                *
*
TEMP*                  4             138        3.7315+2                *
*
TEMP*                  4             143        3.7315+2                *
*
TEMP*                  4             146        3.7315+2                *
*
TEMP*                  4             145        3.7315+2                *
*
TEMP*                  4             144        3.7315+2                *
*
TEMP*                  4             147        3.7315+2                *
*
TEMP*                  4             150        3.7315+2                *
*
TEMP*                  4             152        3.7315+2                *
*
TEMP*                  4             151        3.7315+2                *
*
TEMP*                  4             211        3.7315+2                *
*
TEMP*                  4             210        3.7315+2                *
*
TEMP*                  4              51        3.7315+2                *
*
TEMP*                  4             212        3.7315+2                *
*
TEMP*                  4             223        3.7315+2                *
*
TEMP*                  4             222        3.7315+2                *
*
TEMP*                  4             215        3.7315+2                *
*
TEMP*                  4             227        3.7315+2                *
*
TEMP*                  4             226        3.7315+2                *
*
TEMP*                  4             229        3.7315+2                *
*
TEMP*                  4             234        3.7315+2                *
*
TEMP*                  4             232        3.7315+2                *
*
TEMP*                  4             103        3.7315+2                *
*
TEMP*                  4             399        3.7315+2                *
*
TEMP*                  4              45        3.7315+2                *
*
TEMP*                  4             322        3.7315+2                *
*
TEMP*                  4             104        3.7315+2                *
*
TEMP*                  4             235        3.7315+2                *
*
TEMP*                  4             254        3.7315+2                *
*
TEMP*                  4             261        3.7315+2                *
*
TEMP*                  4             258        3.7315+2                *
*
TEMP*                  4             260        3.7315+2                *
*
TEMP*                  4             264        3.7315+2                *
*
TEMP*                  4             262        3.7315+2                *
*
TEMP*                  4             277        3.7315+2                *
*
TEMP*                  4             273        3.7315+2                *
*
TEMP*                  4             290        3.7315+2                *
*
TEMP*                  4             289        3.7315+2                *
*
TEMP*                  4             288        3.7315+2                *
*
TEMP*                  4             291        3.7315+2                *
*
TEMP*                  4             294        3.7315+2                *
*
TEMP*                  4             114        3.7315+2                *
*
TEMP*                  4             292        3.7315+2                *
*
TEMP*                  4              52        3.7315+2                *
*
TEMP*                  4             113        3.7315+2                *
*
TEMP*                  4             297        3.7315+2                *
*
TEMP*                  4             295        3.7315+2                *
*
TEMP*                  4             300        3.7315+2                *
*
TEMP*                  4              75        3.7315+2                *
*
TEMP*                  4             307        3.7315+2                *
*
TEMP*                  4             306        3.7315+2                *
*
TEMP*                  4             314        3.7315+2                *
*
TEMP*                  4             312        3.7315+2                *
*
TEMP*                  4             316        3.7315+2                *
*
TEMP*                  4             311        3.7315+2                *
*
TEMP*                  4             319        3.7315+2                *
*
TEMP*                  4             323        3.7315+2                *
*
TEMP*                  4             327        3.7315+2                *
*
TEMP*                  4             325        3.7315+2                *
*
TEMP*                  4             328        3.7315+2                *
*
TEMP*                  4             331        3.7315+2                *
*
TEMP*                  4             342        3.7315+2                *
*
TEMP*                  4             345        3.7315+2                *
*
TEMP*                  4             344        3.7315+2                *
*
TEMP*                  4             349        3.7315+2                *
*
TEMP*                  4             348        3.7315+2                *
*
TEMP*                  4             350        3.7315+2                *
*
TEMP*                  4             360        3.7315+2                *
*
TEMP*                  4             362        3.7315+2                *
*
TEMP*                  4             366        3.7315+2                *
*
TEMP*                  4             365        3.7315+2                *
*
TEMP*                  4             367        3.7315+2                *
*
$--1---><--2---><--3---><--4---><--5---><--6---><--7---><--8---><--9---><--10-->
TEMPD*                 4        2.7315+2                                *
*
$--1---><--2---><--3---><--4---><--5---><--6---><--7---><--8---><--9---><--10-->
$ Cylindrical shell normals for Nastran
SNORM,1,0,2.81908E+00,0.00000E+00,1.02606E+00
SNORM,2,0,2.59808E+00,0.00000E+00,1.50000E+00
SNORM,3,0,-1.02606E+00,0.00000E+00,2.81908E+00
SNORM,4,0,3.00000E+00,0.00000E+00,0.00000E+00
SNORM,5,0,-1.50000E+00,0.00000E+00,2.59808E+00
SNORM,6,0,-1.72073E+00,0.00000E+00,2.45746E+00
SNORM,7,0,-2.12132E+00,0.00000E+00,2.12132E+00
SNORM,8,0,-2.12132E+00,0.00000E+00,2.12132E+00
SNORM,9,0,-1.92836E+00,0.00000E+00,2.29813E+00
SNORM,10,0,-2.71892E+00,0.00000E+00,1.26785E+00
SNORM,11,0,-5.20945E-01,0.00000E+00,2.95442E+00
SNORM,12,0,-2.71892E+00,0.00000E+00,1.26785E+00
SNORM,13,0,-5.20945E-01,0.00000E+00,2.95442E+00
SNORM,14,0,-2.89778E+00,0.00000E+00,7.76457E-01
SNORM,15,0,5.20945E-01,0.00000E+00,2.95442E+00
SNORM,16,0,5.20945E-01,0.00000E+00,2.95442E+00
SNORM,17,0,-3.00000E+00,0.00000E+00,0.00000E+00
SNORM,18,0,-2.81908E+00,0.00000E+00,1.02606E+00
SNORM,19,0,-2.81908E+00,0.00000E+00,1.02606E+00
SNORM,20,0,-2.89778E+00,0.00000E+00,7.76457E-01
$ ... 382 like lines cut

ENDDATA 
