$ Generated by Mecway 33
$-----------------------EXECUTIVE CONTROL SECTION-----------------------
SOL 101
CEND
$-------------------------CASE CONTROL SECTION--------------------------
DISPLACEMENT = ALL
SPCFORCES = ALL
MPCFORCES = ALL
STRESS(CORNER) = ALL
SPC = 1
LOAD = 1
BEGIN BULK
$---------------------------BULK DATA SECTION---------------------------
GRID*                  1               0 1.00332474709+0 8.43409538269-1*
*       -7.09372878075-1               0
GRID*                  2               0  1.9884595871+0 5.09418606758-1*
*       -2.64609664679-1               0
GRID*                  3               0  1.9884595871+0 1.50941860676+0*
*       -2.64609664679-1               0
GRID*                  4               0 1.00861418247+0 1.45908355713+0*
*       -2.47653096914-1               0
GRID           5       0   0.0+0   0.0+0   0.0+0       0
GRID           6       0   0.0+0   1.0+0   0.0+0       1
GRID*                  7               0 2.07090449333+0 1.30699515343+0*
*       -1.39908707142+0               0
GRID*                  8               0 2.56778120995+0 1.10144233704+0*
*        -1.2700291872+0               0
GRID*                  9               0  1.4793022871+0 1.56428301334+0*
*       -7.19708859921-1               0
PARAM   QUAD4TYP  MITC4+
PARAM    STR_CID      -2
$--1---><--2---><--3---><--4---><--5---><--6---><--7---><--8---><--9---><--10-->
$$$$$$$$$$$$$$$$$$$$$$$$$$$$$$$$$$$ Material $$$$$$$$$$$$$$$$$$$$$$$$$$$$$$$$$$$
MAT1*                  1          2.0+11 7.1428571429+10           4.0-1*
*                  0.0+0           0.0+0           0.0+0
$--1---><--2---><--3---><--4---><--5---><--6---><--7---><--8---><--9---><--10-->
CORD2R*                1               0           0.0+0           0.0+0*
*                  0.0+0-7.07106781187-1           0.0+0 7.07106781187-1*
*        7.07106781187-1           0.0+0 7.07106781187-1                *
*
SPC            1       1       4   0.0+0
SPC            1       1       5   0.0+0
SPC            1       1       6   0.0+0
SPC            1       6       1   1.0-2
SPC            1       7       3   0.0+0
SPC            1       8       3   1.0-2
SPC            1       2     123   0.0+0
$--1---><--2---><--3---><--4---><--5---><--6---><--7---><--8---><--9---><--10-->
$$$$$$$$$$$$$$$$$$$$$$$$$$$$$$$$$$$ Default $$$$$$$$$$$$$$$$$$$$$$$$$$$$$$$$$$$$
PSHELL         2       1   1.0-2       1               1           0.0+0
CQUAD4*                1               2               1               2*
*                      3               4-1.4841126344-15           0.0+0
CQUAD4*                2               2               5               1*
*                      4               6-2.5786982289-15           0.0+0
CQUAD4*                3               2               7               8*
*                      3               9 1.4865581936-15           0.0+0
$--1---><--2---><--3---><--4---><--5---><--6---><--7---><--8---><--9---><--10-->
$$$$$$$$$$$$$$$$$$$$$$$$$$$$$$$$$$$$ force $$$$$$$$$$$$$$$$$$$$$$$$$$$$$$$$$$$$$
FORCE*                 2               3               0           1.0+0*
*        2.31714876898+0 4.63429753796+0 6.95144630695+0
FORCE          2       4       0   1.0+0   5.0+0   1.0+1   1.5+1
FORCE*                 2               6               0           1.0+0*
*        2.68285123102+0 5.36570246204+0 8.04855369305+0
$--1---><--2---><--3---><--4---><--5---><--6---><--7---><--8---><--9---><--10-->
LOAD           1   1.0+0   1.0+0       2
ENDDATA 
