$ Generated by Mecway 33
$-----------------------EXECUTIVE CONTROL SECTION-----------------------
SOL 101
CEND
$-------------------------CASE CONTROL SECTION--------------------------
DISPLACEMENT = ALL
SPCFORCES = ALL
MPCFORCES = ALL
STRESS(CORNER) = ALL
SPC = 1
LOAD = 1
BEGIN BULK
$---------------------------BULK DATA SECTION---------------------------
GRID           1       0   0.0+0   0.0+0   0.0+0       0
GRID*                  2               0 9.33218836784-1-3.81607085466-1*
*                  0.0+0               0
GRID*                  3               0 1.00000011921+0 1.68126308918+0*
*                  0.0+0               0
GRID*                  4               0-1.52642637491-1 1.30919611454+0*
*                  0.0+0               0
GRID           5       0   2.0+0   0.0+0   0.0+0       0
GRID           6       0   3.0+0   0.0+0   0.0+0       0
GRID           7       0   3.0+0   1.5+0   0.0+0       0
GRID           8       0   2.0+0   1.5+0   0.0+0       0
GRID*                  9               0  5.0201100111-1-1.28850460052-1*
*                  0.0+0               0
GRID*                 10               0 9.66609477997-1 6.49828001857-1*
*                  0.0+0               0
GRID*                 11               0 4.23678740859-1 1.49522960186+0*
*                  0.0+0               0
GRID*                 12               0-7.63213187456-2  6.5459805727-1*
*                  0.0+0               0
GRID*                 13               0  5.5134922266-1   7.053155303-1*
*                  0.0+0               0
PARAM   QUAD4TYP  MITC4+
PARAM    STR_CID      -2
$--1---><--2---><--3---><--4---><--5---><--6---><--7---><--8---><--9---><--10-->
$$$$$$$$$$$$$$$$$$$$$$$$$$$$$$$$$$$ Material $$$$$$$$$$$$$$$$$$$$$$$$$$$$$$$$$$$
MAT1*                  1          2.0+11 7.1428571429+10           4.0-1*
*                  0.0+0           0.0+0           0.0+0
$--1---><--2---><--3---><--4---><--5---><--6---><--7---><--8---><--9---><--10-->
SPC            1       1       1   0.0+0
SPC            1       1       2   0.0+0
SPC            1       1       3   0.0+0
SPC*                   1               1               4 8.72664625997-2*
*       
SPC            1       2       2   0.0+0
SPC            1       2       3   0.0+0
SPC*                   1               2               4 8.72664625997-2*
*       
SPC            1       5       1   0.0+0
SPC            1       5       2   0.0+0
SPC            1       5       3   0.0+0
SPC*                   1               5               4 8.72664625997-2*
*       
SPC            1       6       2   0.0+0
SPC            1       6       3   0.0+0
SPC*                   1               6               4 8.72664625997-2*
*       
SPC*                   1               9               4 8.72664625997-2*
*       
$--1---><--2---><--3---><--4---><--5---><--6---><--7---><--8---><--9---><--10-->
$$$$$$$$$$$$$$$$$$$$$$$$$$$$$$$$$$$ Default $$$$$$$$$$$$$$$$$$$$$$$$$$$$$$$$$$$$
PSHELL         1       1   1.0-1       1               1           0.0+0
CQUAD4         1       1      12      13      11       4   0.0+0   0.0+0
CQUAD4         2       1       6       7       8       5   0.0+0   0.0+0
CQUAD4         3       1       1       9      13      12   0.0+0   0.0+0
CQUAD4         4       1       9       2      10      13   0.0+0   0.0+0
CQUAD4         5       1      13      10       3      11   0.0+0   0.0+0
$--1---><--2---><--3---><--4---><--5---><--6---><--7---><--8---><--9---><--10-->
$$$$$$$$$$$$$$$$$$$$$$$$$$$$$$$$$$$$ moment $$$$$$$$$$$$$$$$$$$$$$$$$$$$$$$$$$$$
MOMENT         2       4       0   1.0+0   1.1+0   0.0+0   0.0+0
$--1---><--2---><--3---><--4---><--5---><--6---><--7---><--8---><--9---><--10-->
$$$$$$$$$$$$$$$$$$$$$$$$$$$$$$$$$$$$ moment $$$$$$$$$$$$$$$$$$$$$$$$$$$$$$$$$$$$
MOMENT         2       3       0   1.0+0   1.1+0   0.0+0   0.0+0
$--1---><--2---><--3---><--4---><--5---><--6---><--7---><--8---><--9---><--10-->
$$$$$$$$$$$$$$$$$$$$$$$$$$$$$$$$$$$$ force $$$$$$$$$$$$$$$$$$$$$$$$$$$$$$$$$$$$$
FORCE*                 2               7               0           1.0+0*
*                  0.0+0           0.0+0 7.33333333333-1
FORCE*                 2               8               0           1.0+0*
*                  0.0+0           0.0+0 7.33333333333-1
$--1---><--2---><--3---><--4---><--5---><--6---><--7---><--8---><--9---><--10-->
LOAD           1   1.0+0   1.0+0       2
ENDDATA 
