$ Generated by Mecway 33
$-----------------------EXECUTIVE CONTROL SECTION-----------------------
SOL 101
CEND
$-------------------------CASE CONTROL SECTION--------------------------
DISPLACEMENT = ALL
STRESS(CORNER) = ALL
FORCE(CORNER) = ALL
SPC = 1
BEGIN BULK
$---------------------------BULK DATA SECTION---------------------------
GRID           1       0   0.0+0   0.0+0   0.0+0       0
GRID           2       0   2.4-1   0.0+0   0.0+0       0
GRID           3       0   2.4-1   1.2-1   0.0+0       0
GRID           4       0   0.0+0   1.2-1   0.0+0       0
GRID           5       0   4.0-2   2.0-2   0.0+0       0
GRID           6       0   1.8-1   3.0-2   0.0+0       0
GRID           7       0   1.6-1   8.0-2   0.0+0       0
GRID           8       0   8.0-2   8.0-2   0.0+0       0
GRID           9       0   0.0+0   0.0+0   4.0-1       0
GRID          10       0   2.4-1   0.0+0   4.0-1       0
GRID          11       0   2.4-1   1.2-1   4.0-1       0
GRID          12       0   0.0+0   1.2-1   4.0-1       0
GRID          13       0   4.0-2   2.0-2   4.0-1       0
GRID          14       0   1.8-1   3.0-2   4.0-1       0
GRID          15       0   1.6-1   8.0-2   4.0-1       0
GRID          16       0   8.0-2   8.0-2   4.0-1       0
GRID          17       0   2.0-2   1.0-2   4.0-1       0
GRID          18       0   6.0-2   5.0-2   4.0-1       0
GRID          19       0   4.0-2   1.0-1   4.0-1       0
GRID          20       0   0.0+0   6.0-2   4.0-1       0
$ ... 13 like lines cut
PARAM   QUAD4TYP  MITC4+
PARAM    STR_CID      -2
$--1---><--2---><--3---><--4---><--5---><--6---><--7---><--8---><--9---><--10-->
$$$$$$$$$$$$$$$$$$$$$$$$$$$$$$$$$$$ Material $$$$$$$$$$$$$$$$$$$$$$$$$$$$$$$$$$$
MAT1           1   1.0+6   4.0+5   2.5-1   0.0+0   0.0+0   0.0+0
$--1---><--2---><--3---><--4---><--5---><--6---><--7---><--8---><--9---><--10-->
SPC            1       1       3   0.0+0
SPC            1       1       4   0.0+0
SPC            1       1       5   0.0+0
SPC            1       2       3  2.88-5
SPC            1       2       4   1.2-4
SPC            1       2       5  -2.4-4
SPC            1       3       3  5.04-5
SPC            1       3       4   2.4-4
SPC            1       3       5  -3.0-4
SPC            1       4       3   7.2-6
SPC            1       4       4   1.2-4
SPC            1       4       5  -6.0-5
SPC            1       9       3   0.0+0
SPC            1       9       4   0.0+0
SPC            1       9       5   0.0+0
SPC            1      10       3  2.88-5
SPC            1      10       4   1.2-4
SPC            1      10       5  -2.4-4
SPC            1      11       3  5.04-5
SPC            1      11       4   2.4-4
$ ... 16 like lines cut
$--1---><--2---><--3---><--4---><--5---><--6---><--7---><--8---><--9---><--10-->
$$$$$$$$$$$$$$$$$$$$$$$$$$$$$$$$$$$ Default $$$$$$$$$$$$$$$$$$$$$$$$$$$$$$$$$$$$
PSHELL         1       1   1.0-3       1               1           0.0+0
CQUAD4*                1               1               1               5*
*                      8               4-2.65650511771+1           0.0+0
CQUAD4*                2               1               8               5*
*                      6               7 1.23690067526+2           0.0+0
CQUAD4*                3               1               2               6*
*                      5               1-1.53434948823+2           0.0+0
CQUAD4         4       1       2       3       7       6  -9.0+1   0.0+0
CQUAD4         5       1       8       7       3       4   0.0+0   0.0+0
CQUAD4*                6               1              26              31*
*                     23              14-9.67098368078+1           0.0+0
CQUAD4         7       1      16      24      33      19   0.0+0   0.0+0
CQUAD4         8       1      24      15      30      33   0.0+0   0.0+0
CQUAD4         9       1      33      30      11      32   0.0+0   0.0+0
CQUAD4        10       1      19      33      32      12   0.0+0   0.0+0
CQUAD4*               11               1               9              17*
*                     21              20-2.65650511771+1           0.0+0
CQUAD4*               12               1              17              13*
*                     18              21-2.65650511771+1           0.0+0
CQUAD4*               13               1              21              18*
*                     16              19 9.46232220803+0           0.0+0
CQUAD4*               14               1              20              21*
*                     19              12 9.46232220803+0           0.0+0
CQUAD4*               15               1              16              18*
*                     25              24 1.23690067526+2           0.0+0
CQUAD4*               16               1              18              13*
*                     22              25 1.23690067526+2           0.0+0
CQUAD4*               17               1              25              22*
*                     14              23 1.00304846469+2           0.0+0
CQUAD4*               18               1              24              25*
*                     23              15 1.00304846469+2           0.0+0
CQUAD4*               19               1              10              26*
*                     28              27-1.53434948823+2           0.0+0
CQUAD4*               20               1              26              14*
*                     22              28-1.53434948823+2           0.0+0
CQUAD4*               21               1              28              22*
*                     13              17-1.11801409486+2           0.0+0
CQUAD4*               22               1              27              28*
*                     17               9-1.11801409486+2           0.0+0
CQUAD4        23       1      10      29      31      26  -9.0+1   0.0+0
CQUAD4        24       1      29      11      30      31  -9.0+1   0.0+0
CQUAD4*               25               1              31              30*
*                     15              23-9.67098368078+1           0.0+0
$--1---><--2---><--3---><--4---><--5---><--6---><--7---><--8---><--9---><--10-->
ENDDATA 
