$ Generated by Mecway 33
$-----------------------EXECUTIVE CONTROL SECTION-----------------------
SOL 101
CEND
$-------------------------CASE CONTROL SECTION--------------------------
DISPLACEMENT = ALL
SPCFORCES = ALL
MPCFORCES = ALL
STRESS(CORNER) = ALL
STRAIN(CORNER) = ALL
SPC = 1
BEGIN BULK
$---------------------------BULK DATA SECTION---------------------------
GRID           1       0   0.0+0   0.0+0   0.0+0       0
GRID           2       0   2.4-1   0.0+0   0.0+0       0
GRID           3       0   2.4-1   1.2-1   0.0+0       0
GRID           4       0   0.0+0   1.2-1   0.0+0       0
GRID           5       0   4.0-2   2.0-2   0.0+0       0
GRID           6       0   1.8-1   3.0-2   0.0+0       0
GRID           7       0   1.6-1   8.0-2   0.0+0       0
GRID           8       0   8.0-2   8.0-2   0.0+0       0
PARAM   QUAD4TYP  MITC4+
PARAM    STR_CID      -2
$--1---><--2---><--3---><--4---><--5---><--6---><--7---><--8---><--9---><--10-->
$$$$$$$$$$$$$$$$$$$$$$$$$$$$$$$$$$$ Material $$$$$$$$$$$$$$$$$$$$$$$$$$$$$$$$$$$
MAT1           1   1.0+6   4.0+5   2.5-1   0.0+0   0.0+0   0.0+0
$--1---><--2---><--3---><--4---><--5---><--6---><--7---><--8---><--9---><--10-->
SPC            1       1       1   0.0+0
SPC            1       1       2   0.0+0
SPC            1       1       3   0.0+0
SPC            1       2       1   2.4-4
SPC            1       2       2   1.2-4
SPC            1       2       3   0.0+0
SPC            1       3       1   3.0-4
SPC            1       3       2   2.4-4
SPC            1       4       1   6.0-5
SPC            1       4       2   1.2-4
SPC            1       4       3   0.0+0
$--1---><--2---><--3---><--4---><--5---><--6---><--7---><--8---><--9---><--10-->
$$$$$$$$$$$$$$$$$$$$$$$$$$$$$$$$$$$ Default $$$$$$$$$$$$$$$$$$$$$$$$$$$$$$$$$$$$
PSHELL         1       1   1.0-3       1               1           0.0+0
CQUAD4*                1               1               1               5*
*                      8               4-2.65650511771+1           0.0+0
CQUAD4*                2               1               8               5*
*                      6               7 1.23690067526+2           0.0+0
CQUAD4*                3               1               2               6*
*                      5               1-1.53434948823+2           0.0+0
CQUAD4         4       1       2       3       7       6  -9.0+1   0.0+0
CQUAD4         5       1       8       7       3       4   0.0+0   0.0+0
$--1---><--2---><--3---><--4---><--5---><--6---><--7---><--8---><--9---><--10-->
ENDDATA 
