$ Generated by Mecway 33
$-----------------------EXECUTIVE CONTROL SECTION-----------------------
SOL 101
CEND
$-------------------------CASE CONTROL SECTION--------------------------
DISPLACEMENT = ALL
SPCFORCES = ALL
MPCFORCES = ALL
STRESS(CORNER) = ALL
SPC = 1
LOAD = 1
BEGIN BULK
$---------------------------BULK DATA SECTION---------------------------
GRID*                  1               0 4.57288312912+0-1.93422758579+0*
*       -1.69990742207+0               0
GRID*                  2               0  4.0408873558+0-1.43147540092+0*
*        -1.8557497263+0               0
GRID*                  3               0 3.66326355934+0-1.55069482327+0*
*       -1.36021947861+0               0
GRID*                  4               0 4.46993398666+0-1.48930215836+0*
*       -2.17267346382+0               0
GRID*                  5               0 4.07874488831+0-9.39786612988-1*
*       -2.51622796059+0               0
GRID*                  6               0 2.03489637375+0-7.19697833061-1*
*       -2.44356513023+0               0
GRID*                  7               0 2.77731776237+0-3.19759398699-1*
*       -3.28582835197+0               0
GRID*                  8               0 3.08246541023+0-7.05722033978-1*
*       -3.73440265656+0               0
GRID*                  9               0  2.3825917244+0-9.82232391834-1*
*       -3.48294448853+0               0
GRID*                 10               0  3.1962044239+0 -1.8483080864+0*
*        -5.5614823103-1               0
PARAM   QUAD4TYP  MITC4+
PARAM    STR_CID      -2
$--1---><--2---><--3---><--4---><--5---><--6---><--7---><--8---><--9---><--10-->
$$$$$$$$$$$$$$$$$$$$$$$$$$$$$$$$$$$ Material $$$$$$$$$$$$$$$$$$$$$$$$$$$$$$$$$$$
MAT1*                  1          2.0+11 7.1428571429+10           4.0-1*
*                  0.0+0           0.0+0           0.0+0
$--1---><--2---><--3---><--4---><--5---><--6---><--7---><--8---><--9---><--10-->
SPC*                   1               6               6-3.49065850399-2*
*       
SPC            1       7       5   0.0+0
SPC            1       8       4   1.0-2
SPC            1      10     123   0.0+0
$--1---><--2---><--3---><--4---><--5---><--6---><--7---><--8---><--9---><--10-->
$$$$$$$$$$$$$$$$$$$$$$$$$$$$$$$$$$$ Default $$$$$$$$$$$$$$$$$$$$$$$$$$$$$$$$$$$$
PSHELL         1       1   1.0-2       1               1           0.0+0
CQUAD4*                1               1               3               6*
*                      7               2-3.0133707733-15           0.0+0
CQUAD4*                2               1               5               8*
*                      7               2-6.4891229925-15           0.0+0
CQUAD4*                3               1               8               9*
*                      6               7-1.0394624065-15           0.0+0
CQUAD4*                4               1              10               1*
*                      2               3-3.8350280718-15           0.0+0
CQUAD4         5       1       1       4       5       2   0.0+0   0.0+0
$--1---><--2---><--3---><--4---><--5---><--6---><--7---><--8---><--9---><--10-->
$$$$$$$$$$$$$$$$$$$$$$$$$$$$$$$$$$$$ moment $$$$$$$$$$$$$$$$$$$$$$$$$$$$$$$$$$$$
FORCE*                 2               1               0           1.0+0*
*        2.36252660586+0 6.27918796633-1-8.64412304311-1
MOMENT*                2               1               0           1.0+0*
*       -4.65318345656-3 8.47829740615-3-6.55889054062-3
FORCE*                 2               4               0           1.0+0*
*        3.31001847927-1 1.39045746006+0 1.38031164408-1
MOMENT*                2               4               0           1.0+0*
*        -3.2700869208-3 5.52832303338-4 2.27279709689-3
FORCE*                 2               5               0           1.0+0*
*        -2.3804450681+0-2.10408689661-1 9.54982983775-1
MOMENT*                2               5               0           1.0+0*
*        3.83965379809-3  -8.748472813-3 7.64341523029-3
FORCE*                 2               2               0           1.0+0*
*       -3.13083385685-1-1.80796756704+0-2.28601843872-1
MOMENT*                2               2               0           1.0+0*
*        4.08360890508-3-2.82646968248-4-3.35732744159-3
$--1---><--2---><--3---><--4---><--5---><--6---><--7---><--8---><--9---><--10-->
LOAD           1   1.0+0   1.0+0       2
ENDDATA 
