$ Generated by Mecway 33
$-----------------------EXECUTIVE CONTROL SECTION-----------------------
SOL 105
CEND
$-------------------------CASE CONTROL SECTION--------------------------
DISPLACEMENT = ALL
SPC = 1
SUBCASE 1
LOAD = 1
SUBCASE 2
METHOD = 1
BEGIN BULK
$---------------------------BULK DATA SECTION---------------------------
GRID           1       0   0.0+0   0.0+0   0.0+0       1
GRID*                  2               0-2.12132034356+0 2.12132034356+0*
*                  0.0+0               1
GRID*                  3               0-1.06066017178+0 1.06066017178+0*
*                  0.0+0               0
GRID*                  4               0 -5.3033008589-1  5.3033008589-1*
*                  0.0+0               0
GRID*                  5               0-1.59099025767+0 1.59099025767+0*
*                  0.0+0               0
GRID*                  6               0-1.85615530061+0 1.85615530061+0*
*                  0.0+0               0
GRID*                  7               0-1.32582521472+0 1.32582521472+0*
*                  0.0+0               0
GRID*                  8               0-7.95495128835-1 7.95495128835-1*
*                  0.0+0               0
GRID*                  9               0-2.65165042945-1 2.65165042945-1*
*                  0.0+0               0
GRID*                 10               0-9.28077650307-1 9.28077650307-1*
*                  0.0+0               0
GRID*                 11               0-6.62912607362-1 6.62912607362-1*
*                  0.0+0               0
GRID*                 12               0-3.97747564417-1 3.97747564417-1*
*                  0.0+0               0
GRID*                 13               0-1.32582521472-1 1.32582521472-1*
*                  0.0+0               0
GRID*                 14               0-1.98873782209+0 1.98873782209+0*
*                  0.0+0               0
GRID*                 15               0-1.72357277914+0 1.72357277914+0*
*                  0.0+0               0
GRID*                 16               0 -1.4584077362+0  1.4584077362+0*
*                  0.0+0               0
GRID*                 17               0-1.19324269325+0 1.19324269325+0*
*                  0.0+0               0
PARAM    STR_CID      -2
$--1---><--2---><--3---><--4---><--5---><--6---><--7---><--8---><--9---><--10-->
$$$$$$$$$$$$$$$$$$$$$$$$$$$$$$$$$$$ Material $$$$$$$$$$$$$$$$$$$$$$$$$$$$$$$$$$$
MAT1           1  2.0+11  1.0+11   0.0+0   0.0+0   0.0+0   0.0+0
$--1---><--2---><--3---><--4---><--5---><--6---><--7---><--8---><--9---><--10-->
CORD2R*                1               0           0.0+0           0.0+0*
*                  0.0+0           0.0+0           0.0+0           1.0+0*
*        7.07106781187-1 7.07106781187-1           0.0+0                *
*
SPC            1       1       4   0.0+0
SPC            1       2       1   0.0+0
SPC            1       2       5   0.0+0
SPC            1       1     123   0.0+0
$--1---><--2---><--3---><--4---><--5---><--6---><--7---><--8---><--9---><--10-->
$$$$$$$$$$$$$$$$$$$$$$$$$$$$$$$$$$$ Default $$$$$$$$$$$$$$$$$$$$$$$$$$$$$$$$$$$$
PBAR           2       1   3.0-3   6.5-9  2.6-10  2.0-10   0.0+0
CBAR           1       2       2      14   0.0+0   0.0+0   1.0+0        
CBAR           2       2      14       6   0.0+0   0.0+0   1.0+0        
CBAR           3       2       6      15   0.0+0   0.0+0   1.0+0        
CBAR           4       2      15       5   0.0+0   0.0+0   1.0+0        
CBAR           5       2       5      16   0.0+0   0.0+0   1.0+0        
CBAR           6       2      16       7   0.0+0   0.0+0   1.0+0        
CBAR           7       2       7      17   0.0+0   0.0+0   1.0+0        
CBAR           8       2      17       3   0.0+0   0.0+0   1.0+0        
CBAR           9       2       3      10   0.0+0   0.0+0   1.0+0        
CBAR          10       2      10       8   0.0+0   0.0+0   1.0+0        
CBAR          11       2       8      11   0.0+0   0.0+0   1.0+0        
CBAR          12       2      11       4   0.0+0   0.0+0   1.0+0        
CBAR          13       2       4      12   0.0+0   0.0+0   1.0+0        
CBAR          14       2      12       9   0.0+0   0.0+0   1.0+0        
CBAR          15       2       9      13   0.0+0   0.0+0   1.0+0        
CBAR          16       2      13       1   0.0+0   0.0+0   1.0+0        
$--1---><--2---><--3---><--4---><--5---><--6---><--7---><--8---><--9---><--10-->
$$$$$$$$$$$$$$$$$$$$$$$$$$$$$$$$$$$$ force $$$$$$$$$$$$$$$$$$$$$$$$$$$$$$$$$$$$$
FORCE*                 2               2               0           1.0+0*
*        7.07106781187-1-7.07106781187-1           0.0+0
$--1---><--2---><--3---><--4---><--5---><--6---><--7---><--8---><--9---><--10-->
EIGRL          1                       3       0           1.0+0    MASS
LOAD           1   1.0+0   1.0+0       2
ENDDATA 
