$ Generated by Mecway 33
$-----------------------EXECUTIVE CONTROL SECTION-----------------------
SOL 105
CEND
$-------------------------CASE CONTROL SECTION--------------------------
DISPLACEMENT = ALL
SPC = 1
MPC = 1
SUBCASE 1
LOAD = 1
SUBCASE 2
METHOD = 1
BEGIN BULK
$---------------------------BULK DATA SECTION---------------------------
GRID           1       0   0.0+0   0.0+0   0.0+0       0
GRID           2       0   2.5+0   2.5+0  1.25+0       0
GRID           3       0  1.25+0   5.0+0  1.25+0       0
GRID           4       0   5.0+0   2.5+1   0.0+0       0
GRID           5       0   0.0+0   2.5+0  1.25+0       0
GRID           6       0  1.25+0   2.5+0   0.0+0       0
GRID           7       0  6.25-1   1.5+1   0.0+0       0
GRID           8       0  1.25+0   2.5+0  1.25+0       0
GRID           9       0  1.25+0   7.5+0   0.0+0       0
GRID          10       0   2.5+0  6.25+0  1.25+0       0
GRID          11       0 1.875+0   7.5+0  1.25+0       0
GRID          12       0   0.0+0   1.0+1   0.0+0       0
GRID          13       0   2.5+0   1.0+1  1.25+0       0
GRID          14       0   7.5+0   2.5+1   0.0+0       0
GRID          15       0   0.0+0   1.5+1   0.0+0       0
GRID          16       0   0.0+0 1.625+1   0.0+0       0
GRID          17       0   0.0+0   1.5+1  6.25-1       0
GRID          18       0  1.25+0 1.375+1  1.25+0       0
GRID          19       0   7.5+0   2.0+1   0.0+0       0
GRID          20       0   7.5+0 1.625+1   0.0+0       0
$ ... 173 like lines cut
PARAM    STR_CID      -2
$--1---><--2---><--3---><--4---><--5---><--6---><--7---><--8---><--9---><--10-->
$$$$$$$$$$$$$$$$$$$$$$$$$$$$$$$$$$ Material_1 $$$$$$$$$$$$$$$$$$$$$$$$$$$$$$$$$$
MAT1*                  1           1.0+6 3.84615384615+5           3.0-1*
*                  0.0+0           0.0+0           0.0+0
$--1---><--2---><--3---><--4---><--5---><--6---><--7---><--8---><--9---><--10-->
SPC            1       1       1   0.0+0
SPC            1       1       2   0.0+0
SPC            1       1       3   0.0+0
SPC            1      40       1   0.0+0
SPC            1      40       2   0.0+0
SPC            1      40       3   0.0+0
SPC            1      47       1   0.0+0
SPC            1      47       2   0.0+0
SPC            1      47       3   0.0+0
SPC            1      57       1   0.0+0
SPC            1      57       2   0.0+0
SPC            1      57       3   0.0+0
SPC            1      58       1   0.0+0
SPC            1      58       2   0.0+0
SPC            1      58       3   0.0+0
SPC            1      61       1   0.0+0
SPC            1      61       2   0.0+0
SPC            1      61       3   0.0+0
SPC            1      69       1   0.0+0
SPC            1      69       2   0.0+0
$ ... 19 like lines cut
MPC            1      26       1   1.0+0     184       1  -1.0+0
MPC            1     130       1   1.0+0     188       1  -1.0+0
MPC            1      32       1   1.0+0     185       1  -1.0+0
MPC            1     135       1   1.0+0     190       1  -1.0+0
MPC            1      34       1   1.0+0     187       1  -1.0+0
MPC            1      82       1   1.0+0     191       1  -1.0+0
MPC            1      31       1   1.0+0     186       1  -1.0+0
MPC            1     134       1   1.0+0     189       1  -1.0+0
MPC            1     157       1   1.0+0     192       1  -1.0+0
MPC            1      36       1   1.0+0     179       1  -1.0+0
MPC            1     140       1   1.0+0     181       1  -1.0+0
MPC            1      46       1   1.0+0     168       1  -1.0+0
MPC            1     161       1   1.0+0     173       1  -1.0+0
MPC            1      55       1   1.0+0     166       1  -1.0+0
MPC            1      87       1   1.0+0     174       1  -1.0+0
MPC            1      66       1   1.0+0     169       1  -1.0+0
MPC            1     122       1   1.0+0     178       1  -1.0+0
MPC            1      52       1   1.0+0     171       1  -1.0+0
MPC            1      18       1   1.0+0     183       1  -1.0+0
MPC            1      44       1   1.0+0     180       1  -1.0+0
$ ... 64 like lines cut
$--1---><--2---><--3---><--4---><--5---><--6---><--7---><--8---><--9---><--10-->
$$$$$$$$$$$$$$$$$$$$$$$$$$$$$$$$ Default_Group $$$$$$$$$$$$$$$$$$$$$$$$$$$$$$$$$
PSOLID         1       1       0       3               1
CHEXA          1       1      12      55      46      37      65      66+
+             52      45     114     161     125     123     126      87+
+            103      90     162     122     165      39
CHEXA          2       1     166     167      35     168     169     170+
+             43     171     172      20     119     173     174     175+
+            152     176     177     108     112     178
CHEXA          3       1     168      35      19     179     171      43+
+             41     180     119     129     154     181     176     152+
+            159     182     112     120     106     183
CHEXA          4       1      37      46      36      15      45      52+
+             44      42     125     140       7     160      90     103+
+            158      17     165      18     118      38
CHEXA          5       1     184     185      24       4     186     187+
+             30      29     188     131     132     133     189     190+
+            136     137     191      83      84      85
CHEXA          6       1     185      22      14      24     187      25+
+             53      30     142     143     144     131     190     147+
+            148     136      94      95      96      83
CHEXA          7       1     179      19      22     185     180      41+
+             25     187     154     155     142     192     182     159+
+            147     190     106     107      94     193
CHEXA          8       1      15      36      32      26      42      44+
+             34      31       7     157     130      16      17     158+
+            135     134     118     109      82     121
CHEXA          9       1       1      69       6      72      77      81+
+              8       5      40      48      51      54      57      58+
+             59      60      61      63      64      73
CHEXA         10       1      69      47      70       6      81      78+
+              2       8      74      75      76      48      58      88+
+             89      59      91      92      93      63
CHEXA         11       1       6      70      62      71       8       2+
+             79       3      76      99     100     101      59      89+
+            104     105      93     110     111     113
CHEXA         12       1      72       6      71      50       5       8+
+              3      80      51     101     116     117      60      59+
+            105     124      64     113     139     146
CHEXA         13       1      56       9      55      12      68      21+
+             66      65     128      33     114     115     145     141+
+             87     126     150     102     162     164
CHEXA         14       1       9      67      49      55      21      23+
+             13      66     156      27      28      33     141     163+
+             86      87      11      97      98     102
CHEXA         15       1      71      62      67       9       3      79+
+             23      21     100     153     156     127     105     104+
+            163     141     111      10      11     149
CHEXA         16       1      50      71       9      56      80       3+
+             21      68     116     127     128     138     124     105+
+            141     145     139     149     150     151
$--1---><--2---><--3---><--4---><--5---><--6---><--7---><--8---><--9---><--10-->
$$$$$$$$$$$$$$$$$$$$$$$$$$$$$$$$$$$ traction $$$$$$$$$$$$$$$$$$$$$$$$$$$$$$$$$$$
FORCE*                 2              24               0           1.0+0*
*                  0.0+0 8.33333333333-2           0.0+0
FORCE*                 2               4               0           1.0+0*
*                  0.0+0 4.16666666667-2           0.0+0
FORCE*                 2              30               0           1.0+0*
*                  0.0+0 8.33333333333-2           0.0+0
FORCE*                 2              29               0           1.0+0*
*                  0.0+0 4.16666666667-2           0.0+0
FORCE*                 2             132               0           1.0+0*
*                  0.0+0-1.66666666667-1           0.0+0
FORCE*                 2             136               0           1.0+0*
*                  0.0+0-3.33333333333-1           0.0+0
FORCE*                 2             137               0           1.0+0*
*                  0.0+0-1.66666666667-1           0.0+0
FORCE*                 2              84               0           1.0+0*
*                  0.0+0-1.66666666667-1           0.0+0
FORCE*                 2              14               0           1.0+0*
*                  0.0+0 4.16666666667-2           0.0+0
FORCE*                 2              53               0           1.0+0*
*                  0.0+0 4.16666666667-2           0.0+0
FORCE*                 2             144               0           1.0+0*
*                  0.0+0-1.66666666667-1           0.0+0
FORCE*                 2             148               0           1.0+0*
*                  0.0+0-1.66666666667-1           0.0+0
FORCE*                 2              96               0           1.0+0*
*                  0.0+0-1.66666666667-1           0.0+0
$--1---><--2---><--3---><--4---><--5---><--6---><--7---><--8---><--9---><--10-->
EIGRL          1                       2       0           2.0+3    MASS
LOAD           1   1.0+0   1.0+0       2
ENDDATA 
