$ Generated by Mecway 33
$-----------------------EXECUTIVE CONTROL SECTION-----------------------
SOL 103
CEND
$-------------------------CASE CONTROL SECTION--------------------------
METHOD = 1
DISPLACEMENT = ALL
SPC = 1
MPC = 1
BEGIN BULK
$---------------------------BULK DATA SECTION---------------------------
GRID           1       0   0.0+0   0.0+0   0.0+0       0
GRID           2       0  1.25-1   5.0-1  1.25-1       0
GRID           3       0   0.0+0  8.75-1  1.25-1       0
GRID           4       0   0.0+0   1.0+0   0.0+0       0
GRID           5       0   0.0+0  3.75-1  1.25-1       0
GRID           6       0   0.0+0   7.5-1   0.0+0       0
GRID           7       0  1.25-1  8.75-1  1.25-1       0
GRID           8       0   0.0+0   7.5-1  1.25-1       0
GRID           9       0  1.25-1  3.75-1   0.0+0       0
GRID          10       0  1.25-1  8.75-1   0.0+0       0
GRID          11       0  1.25-1  3.75-1  1.25-1       0
GRID          12       0   0.0+0   5.0-1   0.0+0       0
GRID          13       0   0.0+0   1.0+0  1.25-1       0
GRID          14       0  1.25-1   7.5-1   0.0+0       0
GRID          15       0  1.25-1   0.0+0   0.0+0       0
GRID          16       0  1.25-1   1.0+0   0.0+0       0
GRID          17       0  1.25-1   2.5-1   0.0+0       0
GRID          18       0   0.0+0  1.25-1   0.0+0       0
GRID          19       0  1.25-1   1.0+0  1.25-1       0
GRID          20       0  1.25-1   7.5-1  1.25-1       0
$ ... 84 like lines cut
PARAM    STR_CID      -2
$--1---><--2---><--3---><--4---><--5---><--6---><--7---><--8---><--9---><--10-->
$$$$$$$$$$$$$$$$$$$$$$$$$$$$$$$$$$$ Material $$$$$$$$$$$$$$$$$$$$$$$$$$$$$$$$$$$
MAT1*                  1          2.1+11 7.8358208955+10           3.4-1*
*                  7.8+3           0.0+0           0.0+0
$--1---><--2---><--3---><--4---><--5---><--6---><--7---><--8---><--9---><--10-->
SPC            1       4       1   0.0+0
SPC            1       4       3   0.0+0
SPC            1      13       1   0.0+0
SPC            1      13       3   0.0+0
SPC            1      16       1   0.0+0
SPC            1      16       3   0.0+0
SPC            1      19       1   0.0+0
SPC            1      19       3   0.0+0
SPC            1      94       1   0.0+0
SPC            1      94       3   0.0+0
SPC            1      96       1   0.0+0
SPC            1      96       3   0.0+0
SPC            1      97       1   0.0+0
SPC            1      97       3   0.0+0
SPC            1      99       1   0.0+0
SPC            1      99       3   0.0+0
MPC*                   1              81               1 5.20833333333-3*
*                      1               1-1.30208333333-3                *
*                                     73               1 5.20833333333-3*
*                     15               1-1.30208333333-3                *
*                                     78               1 5.20833333333-3*
*                     28               1-1.30208333333-3                *
*                                     23               1-1.30208333333-3*
*                     77               1 5.20833333333-3
MPC*                   1              81               2 5.20833333333-3*
*                      1               2-1.30208333333-3                *
*                                     73               2 5.20833333333-3*
*                     15               2-1.30208333333-3                *
*                                     78               2 5.20833333333-3*
*                     28               2-1.30208333333-3                *
*                                     23               2-1.30208333333-3*
*                     77               2 5.20833333333-3
MPC*                   1              81               3 5.20833333333-3*
*                      1               3-1.30208333333-3                *
*                                     73               3 5.20833333333-3*
*                     15               3-1.30208333333-3                *
*                                     78               3 5.20833333333-3*
*                     28               3-1.30208333333-3                *
*                                     23               3-1.30208333333-3*
*                     77               3 5.20833333333-3
$--1---><--2---><--3---><--4---><--5---><--6---><--7---><--8---><--9---><--10-->
$$$$$$$$$$$$$$$$$$$$$$$$$$$$$$$$$$$ Default $$$$$$$$$$$$$$$$$$$$$$$$$$$$$$$$$$$$
PSOLID         1       1       0       3               1
CHEXA          1       1      12      25      29      21      35       2+
+             36      24      37      38      39      40      41      42+
+             43      44      45      46      47      48
CHEXA          2       1      26       9      25      12       5      11+
+              2      35      49      50      37      51      52      53+
+             42      41      54      55      45      56
CHEXA          3       1      22      17       9      26      27      30+
+             11       5      57      58      49      59      60      61+
+             53      52      62      63      54      64
CHEXA          4       1      21      29      14       6      24      36+
+             20       8      39      65      66      67      44      43+
+             68      69      47      70      71      72
CHEXA          5       1       1      15      32      18      23      28+
+             34      31      73      74      75      76      77      78+
+             79      80      81      82      83      84
CHEXA          6       1       6      14      10      33       8      20+
+              7       3      66      85      86      87      69      68+
+             88      89      71      90      91      92
CHEXA          7       1      33      10      16       4       3       7+
+             19      13      86      93      94      95      89      88+
+             96      97      91      98      99     100
CHEXA          8       1      18      32      17      22      31      34+
+             30      27      75     101      57     102      80      79+
+             61      60      83     103      62     104
$--1---><--2---><--3---><--4---><--5---><--6---><--7---><--8---><--9---><--10-->
EIGRL          1                       4       0                    MASS
ENDDATA 
