$ Generated by Mecway 33
$-----------------------EXECUTIVE CONTROL SECTION-----------------------
SOL 101
CEND
$-------------------------CASE CONTROL SECTION--------------------------
DISPLACEMENT = ALL
SPCFORCES = ALL
MPCFORCES = ALL
STRESS(CORNER) = ALL
STRAIN(CORNER) = ALL
SPC = 1
MPC = 1
LOAD = 1
BEGIN BULK
$---------------------------BULK DATA SECTION---------------------------
GRID           1       0   0.0+0   3.0+0  -1.0+0       0
GRID           2       0   1.0+0   3.0+0  -1.0+0       0
GRID           3       0   1.0+0   4.0+0  -1.0+0       0
GRID           4       0   0.0+0   4.0+0  -1.0+0       0
GRID           5       0   0.0+0   3.0+0   0.0+0       0
GRID           6       0   1.0+0   3.0+0   0.0+0       0
GRID           7       0   1.0+0   4.0+0   0.0+0       0
GRID           8       0   0.0+0   4.0+0   0.0+0       0
GRID           9       0   0.0+0   3.0+0   1.0+0       0
GRID          10       0   1.0+0   3.0+0   1.0+0       0
GRID          11       0   1.0+0   4.0+0   1.0+0       0
GRID*                 12               0 6.1230317691-17           4.0+0*
*                  1.0+0               0
GRID*                 13               0 6.1230317691-17           3.0+0*
*                  2.0+0               0
GRID          14       0   1.0+0   3.0+0   2.0+0       0
GRID          15       0   1.0+0   4.0+0   2.0+0       0
GRID*                 16               0 6.1230317691-17           4.0+0*
*                  2.0+0               0
GRID          17       0   3.0+0   3.0+0  -1.0+0       0
GRID          18       0   4.0+0   3.0+0  -1.0+0       0
GRID          19       0   4.0+0   4.0+0  -1.0+0       0
GRID          20       0   3.0+0   4.0+0  -1.0+0       0
GRID          21       0   3.0+0   3.0+0   0.0+0       0
GRID          22       0   4.0+0   3.0+0   0.0+0       0
GRID          23       0   4.0+0   4.0+0   0.0+0       0
GRID          24       0   3.0+0   4.0+0   0.0+0       0
GRID          25       0   3.0+0   3.0+0   1.0+0       0
GRID          26       0   4.0+0   3.0+0   1.0+0       0
GRID          27       0   4.0+0   4.0+0   1.0+0       0
GRID          28       0   3.0+0   4.0+0   1.0+0       0
PARAM    STR_CID      -2
$--1---><--2---><--3---><--4---><--5---><--6---><--7---><--8---><--9---><--10-->
$$$$$$$$$$$$$$$$$$$$$$$$$$$$$$$$$$$ Material $$$$$$$$$$$$$$$$$$$$$$$$$$$$$$$$$$$
MAT1*                  1           1.0+5 3.84615384615+4           3.0-1*
*                  0.0+0           0.0+0           0.0+0
$--1---><--2---><--3---><--4---><--5---><--6---><--7---><--8---><--9---><--10-->
SPC            1       1       1   0.0+0
SPC            1       1       2   0.0+0
SPC            1       1       3   0.0+0
SPC            1       2       3   0.0+0
SPC            1       2       2   0.0+0
SPC            1       3       3   0.0+0
SPC            1       4       3   0.0+0
SPC            1      17       1   0.0+0
SPC            1      17       2   0.0+0
SPC            1      17       3   0.0+0
SPC            1      18       3   0.0+0
SPC            1      18       2   0.0+0
SPC            1      19       3   0.0+0
SPC            1      20       3   0.0+0
MPC            1       5       1   1.0+0       9       1  -1.0+0
MPC            1       9       2  -1.0+0       5       2   1.0+0
MPC            1       9       3   1.0+0       5       3  -1.0+0
MPC            1       6       1   1.0+0      10       1  -1.0+0
MPC            1      10       2  -1.0+0       6       2   1.0+0
MPC            1      10       3   1.0+0       6       3  -1.0+0
MPC            1       7       1   1.0+0      11       1  -1.0+0
MPC            1      11       2  -1.0+0       7       2   1.0+0
MPC            1      11       3   1.0+0       7       3  -1.0+0
MPC            1       8       1   1.0+0      12       1  -1.0+0
MPC            1      12       2  -1.0+0       8       2   1.0+0
MPC            1      12       3   1.0+0       8       3  -1.0+0
$--1---><--2---><--3---><--4---><--5---><--6---><--7---><--8---><--9---><--10-->
$$$$$$$$$$$$$$$$$$$$$$$$$$$$$$$$$$$ Default $$$$$$$$$$$$$$$$$$$$$$$$$$$$$$$$$$$$
PSOLID         1       1       0       2               1
CHEXA          1       1       1       2       3       4       5       6+
+              7       8
CHEXA          3       1      17      18      19      20      21      22+
+             23      24
CORD2R         2       0   0.0+0   0.0+0   0.0+0 -1.0-12   0.0+0   1.0+0+
+          1.0+0   0.0+0   0.0+0
PSOLID         3       1       2       2               1
CHEXA          2       3       9      10      11      12      13      14+
+             15      16
CHEXA          4       3      21      22      23      24      25      26+
+             27      28
$--1---><--2---><--3---><--4---><--5---><--6---><--7---><--8---><--9---><--10-->
$$$$$$$$$$$$$$$$$$$$$$$$$$$$$$$$$$$$ force $$$$$$$$$$$$$$$$$$$$$$$$$$$$$$$$$$$$$
FORCE          2      13       0   1.0+0  1.25-1   2.5-1 -3.75-1
FORCE          2      14       0   1.0+0  1.25-1   2.5-1 -3.75-1
FORCE          2      15       0   1.0+0  1.25-1   2.5-1 -3.75-1
FORCE          2      16       0   1.0+0  1.25-1   2.5-1 -3.75-1
FORCE          2      25       0   1.0+0  1.25-1   2.5-1 -3.75-1
FORCE          2      26       0   1.0+0  1.25-1   2.5-1 -3.75-1
FORCE          2      27       0   1.0+0  1.25-1   2.5-1 -3.75-1
FORCE          2      28       0   1.0+0  1.25-1   2.5-1 -3.75-1
$--1---><--2---><--3---><--4---><--5---><--6---><--7---><--8---><--9---><--10-->
LOAD           1   1.0+0   1.0+0       2
ENDDATA 
