$ Generated by Mecway 33
$-----------------------EXECUTIVE CONTROL SECTION-----------------------
SOL 101
CEND
$-------------------------CASE CONTROL SECTION--------------------------
DISPLACEMENT = ALL
SPCFORCES = ALL
MPCFORCES = ALL
STRESS(CORNER) = ALL
STRAIN(CORNER) = ALL
SPC = 1
MPC = 1
LOAD = 1
BEGIN BULK
$---------------------------BULK DATA SECTION---------------------------
GRID           1       0   0.0+0   0.0+0   0.0+0       0
GRID*                  2               0           1.0+0 3.7491518046-33*
*        6.1230317691-17               0
GRID*                  3               0           1.0+0 7.4983036091-33*
*                  1.0+0               0
GRID*                  4               0           2.0+0 1.1247455414-32*
*                  1.0+0               0
GRID*                  5               0           5.0-1 1.8745759023-33*
*        3.0615158846-17               0
GRID*                  6               0           1.5+0 9.3728795114-33*
*                  1.0+0               0
GRID*                  7               0          1.25+0 8.4355915602-33*
*                  1.0+0               0
GRID*                  8               0          1.75+0 1.0310167463-32*
*                  1.0+0               0
GRID*                  9               0           2.5-1 9.3728795114-34*
*        1.5307579423-17               0
GRID*                 10               0           7.5-1 2.8118638534-33*
*        4.5922738268-17               0
PARAM    STR_CID      -2
$--1---><--2---><--3---><--4---><--5---><--6---><--7---><--8---><--9---><--10-->
$$$$$$$$$$$$$$$$$$$$$$$$$$$$$$$$$$$ Material $$$$$$$$$$$$$$$$$$$$$$$$$$$$$$$$$$$
MAT1           1  2.1+11 1.05+11   0.0+0   7.8+3   0.0+0   0.0+0
$--1---><--2---><--3---><--4---><--5---><--6---><--7---><--8---><--9---><--10-->
SPC            1       1       1   0.0+0
SPC            1       1       2   0.0+0
SPC            1       1       3   0.0+0
SPC            1       1       4   0.0+0
SPC            1       1       5   0.0+0
SPC            1       3       2   1.0-5
MPC            1       2       1   1.0+0       3       1  -1.0+0
MPC            1       2       2   1.0+0       3       2  -1.0+0
MPC            1       2       3   1.0+0       3       3  -1.0+0
MPC            1       3       4  -1.0+0       2       4   1.0+0
MPC            1       3       5  -1.0+0       2       5   1.0+0
MPC            1       3       6  -1.0+0       2       6   1.0+0
$--1---><--2---><--3---><--4---><--5---><--6---><--7---><--8---><--9---><--10-->
$$$$$$$$$$$$$$$$$$$$$$$$$$$$$$$$$$$ Default $$$$$$$$$$$$$$$$$$$$$$$$$$$$$$$$$$$$
PBAR*                  1               1 2.82743338823-3 2.89811922294-6*
*        2.89811922294-6 5.79623844587-6           0.0+0
CBAR*                  1               1               1               9*
*       -3.7491518046-33           1.0+0-2.2822450534-48                
CBAR*                  2               1               9               5*
*       -3.7491518046-33           1.0+0-2.6230216856-47                
CBAR*                  3               1               5              10*
*       -3.7491518046-33           1.0+0-2.9664728192-48                
CBAR*                  4               1              10               2*
*       -3.7491518046-33           1.0+0-1.5980172876-48                
CBAR*                  5               1               3               7*
*       -3.7491518046-33           1.0+0 3.7491518046-33                
CBAR*                  6               1               7               6*
*       -3.7491518046-33           1.0+0 3.7491518046-33                
CBAR*                  7               1               6               8*
*       -3.7491518046-33           1.0+0 3.7491518046-33                
CBAR*                  8               1               8               4*
*       -3.7491518046-33           1.0+0 3.7491518046-33                
$--1---><--2---><--3---><--4---><--5---><--6---><--7---><--8---><--9---><--10-->
$$$$$$$$$$$$$$$$$$$$$$$$$$$$$$$$$$$$ moment $$$$$$$$$$$$$$$$$$$$$$$$$$$$$$$$$$$$
MOMENT         2       4       0   1.0+0   3.0+0   0.0+0   0.0+0
$--1---><--2---><--3---><--4---><--5---><--6---><--7---><--8---><--9---><--10-->
$$$$$$$$$$$$$$$$$$$$$$$$$$$$$$$$$$$$ force $$$$$$$$$$$$$$$$$$$$$$$$$$$$$$$$$$$$$
FORCE          2       4       0   1.0+0   1.0+4   0.0+0   0.0+0
$--1---><--2---><--3---><--4---><--5---><--6---><--7---><--8---><--9---><--10-->
$$$$$$$$$$$$$$$$$$$$$$$$$$$$$$$$$$$ gravity $$$$$$$$$$$$$$$$$$$$$$$$$$$$$$$$$$$$
GRAV           3       0   1.0+0   0.0+0  -1.0+1   0.0+0
$--1---><--2---><--3---><--4---><--5---><--6---><--7---><--8---><--9---><--10-->
LOAD           1   1.0+0   1.0+0       2   1.0+0       3
ENDDATA 
