$ Generated by Mecway 33
$-----------------------EXECUTIVE CONTROL SECTION-----------------------
SOL 105
CEND
$-------------------------CASE CONTROL SECTION--------------------------
DISPLACEMENT = ALL
SPC = 1
SUBCASE 1
LOAD = 1
SUBCASE 2
METHOD = 1
BEGIN BULK
$---------------------------BULK DATA SECTION---------------------------
GRID           1       0   0.0+0   0.0+0   0.0+0       0
GRID           2       0   1.0+1   0.0+0   0.0+0       0
GRID           3       0   1.0+1   1.0+1   0.0+0       0
GRID           4       0   0.0+0   1.0+1   0.0+0       0
GRID           5       0   5.0+0   0.0+0   0.0+0       0
GRID           6       0   1.0+1   5.0+0   0.0+0       0
GRID           7       0   5.0+0   1.0+1   0.0+0       0
GRID           8       0   0.0+0   5.0+0   0.0+0       0
GRID           9       0   5.0+0   5.0+0   0.0+0       0
GRID          10       0   2.5+0   5.0+0   0.0+0       0
GRID          11       0   5.0+0   7.5+0   0.0+0       0
GRID          12       0   2.5+0   1.0+1   0.0+0       0
GRID          13       0   0.0+0   7.5+0   0.0+0       0
GRID          14       0   2.5+0   7.5+0   0.0+0       0
GRID          15       0   2.5+0   0.0+0   0.0+0       0
GRID          16       0   5.0+0   2.5+0   0.0+0       0
GRID          17       0   0.0+0   2.5+0   0.0+0       0
GRID          18       0   2.5+0   2.5+0   0.0+0       0
GRID          19       0   7.5+0   0.0+0   0.0+0       0
GRID          20       0   1.0+1   2.5+0   0.0+0       0
$ ... 269 like lines cut
PARAM    STR_CID      -2
$--1---><--2---><--3---><--4---><--5---><--6---><--7---><--8---><--9---><--10-->
SPC            1       1       1   0.0+0
SPC            1       1       2   0.0+0
SPC            1       1       3   0.0+0
SPC            1       2       3   0.0+0
SPC            1       3       3   0.0+0
SPC            1       4       3   0.0+0
SPC            1       4       1   0.0+0
SPC            1       5       3   0.0+0
SPC            1       6       3   0.0+0
SPC            1       7       3   0.0+0
SPC            1       8       3   0.0+0
SPC            1      12       3   0.0+0
SPC            1      13       3   0.0+0
SPC            1      15       3   0.0+0
SPC            1      17       3   0.0+0
SPC            1      19       3   0.0+0
SPC            1      20       3   0.0+0
SPC            1      23       3   0.0+0
SPC            1      24       3   0.0+0
SPC            1      32       3   0.0+0
$ ... 47 like lines cut
$--1---><--2---><--3---><--4---><--5---><--6---><--7---><--8---><--9---><--10-->
$$$$$$$$$$$$$$$$$$$$$$$$$$$$$$$$$$$ Default $$$$$$$$$$$$$$$$$$$$$$$$$$$$$$$$$$$$
CQUAD4         1       1       1     242     246     245   0.0+0   0.0+0
CQUAD4         2       1     242      56     243     246   0.0+0   0.0+0
CQUAD4         3       1     246     243      60     244   0.0+0   0.0+0
CQUAD4         4       1     245     246     244      59   0.0+0   0.0+0
CQUAD4         5       1      56     247     250     243   0.0+0   0.0+0
CQUAD4         6       1     247      15     248     250   0.0+0   0.0+0
CQUAD4         7       1     250     248      57     249   0.0+0   0.0+0
CQUAD4         8       1     243     250     249      60   0.0+0   0.0+0
CQUAD4         9       1      60     249     254     253   0.0+0   0.0+0
CQUAD4        10       1     249      57     251     254   0.0+0   0.0+0
CQUAD4        11       1     254     251      18     252   0.0+0   0.0+0
CQUAD4        12       1     253     254     252      58   0.0+0   0.0+0
CQUAD4        13       1      59     244     257     256   0.0+0   0.0+0
CQUAD4        14       1     244      60     253     257   0.0+0   0.0+0
CQUAD4        15       1     257     253      58     255   0.0+0   0.0+0
CQUAD4        16       1     256     257     255      17   0.0+0   0.0+0
CQUAD4        17       1      15     258     261     248   0.0+0   0.0+0
CQUAD4        18       1     258      61     259     261   0.0+0   0.0+0
CQUAD4        19       1     261     259      64     260   0.0+0   0.0+0
CQUAD4        20       1     248     261     260      57   0.0+0   0.0+0
$ ... 236 like lines cut
$--1---><--2---><--3---><--4---><--5---><--6---><--7---><--8---><--9---><--10-->
$$$$$$$$$$$$$$$$$$$$$$$$$$$$$$$$$$$$ force $$$$$$$$$$$$$$$$$$$$$$$$$$$$$$$$$$$$$
FORCE          2       8       0   1.0+0  6.25-1   0.0+0   0.0+0
FORCE          2      13       0   1.0+0  6.25-1   0.0+0   0.0+0
FORCE          2      17       0   1.0+0  6.25-1   0.0+0   0.0+0
FORCE          2      45       0   1.0+0  6.25-1   0.0+0   0.0+0
FORCE          2      54       0   1.0+0  6.25-1   0.0+0   0.0+0
FORCE          2      59       0   1.0+0  6.25-1   0.0+0   0.0+0
FORCE          2      68       0   1.0+0  6.25-1   0.0+0   0.0+0
FORCE          2     193       0   1.0+0  6.25-1   0.0+0   0.0+0
FORCE          2     204       0   1.0+0  6.25-1   0.0+0   0.0+0
FORCE          2     232       0   1.0+0  6.25-1   0.0+0   0.0+0
FORCE          2     240       0   1.0+0  6.25-1   0.0+0   0.0+0
FORCE          2     245       0   1.0+0  6.25-1   0.0+0   0.0+0
FORCE          2     256       0   1.0+0  6.25-1   0.0+0   0.0+0
FORCE          2     282       0   1.0+0  6.25-1   0.0+0   0.0+0
FORCE          2     288       0   1.0+0  6.25-1   0.0+0   0.0+0
$--1---><--2---><--3---><--4---><--5---><--6---><--7---><--8---><--9---><--10-->
$$$$$$$$$$$$$$$$$$$$$$$$$$$$$$$$$$$$ force $$$$$$$$$$$$$$$$$$$$$$$$$$$$$$$$$$$$$
FORCE          2       4       0   1.0+0 3.125-1   0.0+0   0.0+0
FORCE          2       1       0   1.0+0 3.125-1   0.0+0   0.0+0
$--1---><--2---><--3---><--4---><--5---><--6---><--7---><--8---><--9---><--10-->
$$$$$$$$$$$$$$$$$$$$$$$$$$$$$$$$$$$$ force $$$$$$$$$$$$$$$$$$$$$$$$$$$$$$$$$$$$$
FORCE          2       6       0   1.0+0 -6.25-1   0.0+0   0.0+0
FORCE          2      20       0   1.0+0 -6.25-1   0.0+0   0.0+0
FORCE          2      23       0   1.0+0 -6.25-1   0.0+0   0.0+0
FORCE          2      32       0   1.0+0 -6.25-1   0.0+0   0.0+0
FORCE          2      35       0   1.0+0 -6.25-1   0.0+0   0.0+0
FORCE          2      75       0   1.0+0 -6.25-1   0.0+0   0.0+0
FORCE          2      78       0   1.0+0 -6.25-1   0.0+0   0.0+0
FORCE          2     103       0   1.0+0 -6.25-1   0.0+0   0.0+0
FORCE          2     106       0   1.0+0 -6.25-1   0.0+0   0.0+0
FORCE          2     116       0   1.0+0 -6.25-1   0.0+0   0.0+0
FORCE          2     119       0   1.0+0 -6.25-1   0.0+0   0.0+0
FORCE          2     155       0   1.0+0 -6.25-1   0.0+0   0.0+0
FORCE          2     158       0   1.0+0 -6.25-1   0.0+0   0.0+0
FORCE          2     168       0   1.0+0 -6.25-1   0.0+0   0.0+0
FORCE          2     171       0   1.0+0 -6.25-1   0.0+0   0.0+0
$--1---><--2---><--3---><--4---><--5---><--6---><--7---><--8---><--9---><--10-->
$$$$$$$$$$$$$$$$$$$$$$$$$$$$$$$$$$$$ force $$$$$$$$$$$$$$$$$$$$$$$$$$$$$$$$$$$$$
FORCE          2       3       0   1.0+0-3.125-1   0.0+0   0.0+0
FORCE          2       2       0   1.0+0-3.125-1   0.0+0   0.0+0
$--1---><--2---><--3---><--4---><--5---><--6---><--7---><--8---><--9---><--10-->
EIGRL          1                       1       0           1.0+0    MASS
LOAD           1   1.0+0   1.0+0       2
PARAM,QUAD4TYP,MITC4+
PARAM,PCOMPEQ,2

PSHELL,1,10,0.056,11,,10

$ MID1
MAT2,10,14652220.,3433359.,1604671.,8233541.,1604671.,4004762.

$ MID2 = D*/(t^3/12)
MAT2,11,1.168253+7,2.885615+6,6.438817+5,5.010838+6,1.604206+6,4.079855+6

ENDDATA 
