$ Generated by Mecway 33
$-----------------------EXECUTIVE CONTROL SECTION-----------------------
SOL 101
CEND
$-------------------------CASE CONTROL SECTION--------------------------
DISPLACEMENT = ALL
SPCFORCES = ALL
MPCFORCES = ALL
STRESS(CORNER) = ALL
STRAIN(CORNER) = ALL
SPC = 1
LOAD = 1
BEGIN BULK
$---------------------------BULK DATA SECTION---------------------------
GRID           1       0   0.0+0   0.0+0   0.0+0       0
GRID           2       0   5.0-2   7.5-2   0.0+0       0
GRID           3       0   7.5-2   0.0+0   0.0+0       0
GRID           4       0   0.0+0   0.0+0   7.5-2       0
GRID           5       0   7.5-2   7.5-2   5.0-2       0
GRID           6       0   2.5-2   7.5-2   0.0+0       0
GRID           7       0   5.0-2   0.0+0   7.5-2       0
GRID           8       0   2.5-2   0.0+0   7.5-2       0
GRID           9       0   5.0-2   0.0+0   0.0+0       0
GRID          10       0   7.5-2   5.0-2   7.5-2       0
GRID*                 11               0 4.90394175053-2 2.86021947861-2*
*                  7.5-2               0
GRID          12       0   0.0+0   5.0-2   0.0+0       0
GRID          13       0   7.5-2   5.0-2   0.0+0       0
GRID          14       0   7.5-2   0.0+0   5.0-2       0
GRID          15       0   0.0+0   2.5-2   7.5-2       0
GRID          16       0   7.5-2   7.5-2   2.5-2       0
GRID          17       0   0.0+0   0.0+0   5.0-2       0
GRID          18       0   7.5-2   2.5-2   7.5-2       0
GRID*                 19               0 7.49999955297-2 4.63978171349-2*
*        5.76846790314-2               0
GRID*                 20               0 2.49999985099-2 2.06773728132-2*
*                  7.5-2               0
GRID          21       0   5.0-2   0.0+0   5.0-2       0
GRID          22       0   2.5-2   7.5-2   2.5-2       0
GRID          23       0   7.5-2   7.5-2   7.5-2       0
GRID*                 24               0-4.47034835815-9 4.63978171349-2*
*        5.76846790314-2               0
GRID*                 25               0 4.32758927345-2 5.69642424583-2*
*       -8.9406881898-10               0
GRID          26       0   0.0+0   7.5-2   0.0+0       0
GRID*                 27               0 4.32758882642-2 5.33620595932-2*
*        5.76846781373-2               0
GRID*                 28               0 1.87561869621-2 4.30357784033-2*
*        5.76846718788-2               0
GRID          29       0   5.0-2   7.5-2   5.0-2       0
GRID          30       0   7.5-2   0.0+0   2.5-2       0
GRID          31       0   0.0+0   7.5-2   5.0-2       0
GRID          32       0   0.0+0   7.5-2   2.5-2       0
GRID*                 33               0 7.49999910593-2 5.50430834293-2*
*        3.17240962386-2               0
GRID          34       0   7.5-2   2.5-2   0.0+0       0
GRID*                 35               0           7.5-2 1.94766432047-2*
*                  5.0-2               0
GRID          36       0   0.0+0   5.0-2   7.5-2       0
GRID*                 37               0 4.32758927345-2 5.69642424583-2*
*        7.49999991059-2               0
GRID          38       0   5.0-2   7.5-2   2.5-2       0
GRID          39       0   7.5-2   7.5-2   0.0+0       1
GRID*                 40               0 1.87561914325-2 4.66379612684-2*
*        7.49999928474-2               0
GRID          41       0   5.0-2   7.5-2   7.5-2       0
GRID          42       0   7.5-2   0.0+0   7.5-2       0
GRID          43       0   0.0+0   7.5-2   7.5-2       0
GRID          44       0   2.5-2   7.5-2   5.0-2       0
GRID          45       0   7.5-2   2.5-2   2.5-2       0
GRID          46       0   2.5-2   7.5-2   7.5-2       0
GRID          47       0   2.5-2   0.0+0   0.0+0       0
GRID*                 48               0 4.90394175053-2 2.86021947861-2*
*                  0.0+0               0
GRID*                 49               0 1.87561914325-2 4.66379612684-2*
*       -7.15255126238-9               0
GRID          50       0   0.0+0   2.5-2   0.0+0       0
GRID          51       0   2.5-2   0.0+0   5.0-2       0
GRID*                 52               0 4.90394175053-2 2.30788379908-2*
*                  5.0-2               0
GRID*                 53               0           0.0+0 1.94766432047-2*
*                  5.0-2               0
GRID          54       0   0.0+0   0.0+0   2.5-2       0
GRID          55       0   5.0-2   0.0+0   2.5-2       0
GRID*                 56               0 4.32758837938-2 6.20073258877-2*
*        3.17240953445-2               0
GRID*                 57               0-8.94069671631-9 5.50430834293-2*
*        3.17240962386-2               0
GRID          58       0   2.5-2   0.0+0   2.5-2       0
GRID*                 59               0 4.90394175053-2 2.86021947861-2*
*                  2.5-2               0
GRID*                 60               0 1.87561824918-2 5.16810446978-2*
*        3.17240890861-2               0
GRID          61       0   0.0+0   2.5-2   2.5-2       0
GRID*                 62               0 2.49999985099-2 2.06773728132-2*
*                  0.0+0               0
GRID*                 63               0 2.49999985099-2 1.51540160179-2*
*                  5.0-2               0
GRID*                 64               0 2.49999985099-2 2.06773728132-2*
*                  2.5-2               0
GRID          65       0   2.0-1   0.0+0   0.0+0       0
GRID          66       0   2.5-1   7.5-2   0.0+0       0
GRID          67       0  2.75-1   0.0+0   0.0+0       0
GRID          68       0   2.0-1   0.0+0   7.5-2       0
GRID          69       0  2.75-1   7.5-2   5.0-2       0
GRID          70       0  2.25-1   7.5-2   0.0+0       0
GRID          71       0   2.5-1   0.0+0   7.5-2       0
GRID          72       0  2.25-1   0.0+0   7.5-2       0
GRID          73       0   2.5-1   0.0+0   0.0+0       0
GRID          74       0  2.75-1   5.0-2   7.5-2       0
GRID*                 75               0 2.49039417505-1 2.86021947861-2*
*                  7.5-2               0
GRID          76       0   2.0-1   5.0-2   0.0+0       0
GRID          77       0  2.75-1   5.0-2   0.0+0       0
GRID          78       0  2.75-1   0.0+0   5.0-2       0
GRID          79       0   2.0-1   2.5-2   7.5-2       0
GRID          80       0  2.75-1   7.5-2   2.5-2       0
GRID          81       0   2.0-1   0.0+0   5.0-2       0
GRID          82       0  2.75-1   2.5-2   7.5-2       0
GRID*                 83               0  2.7499999553-1 4.63978171349-2*
*        5.76846790314-2               0
GRID*                 84               0  2.2499999851-1 2.06773728132-2*
*                  7.5-2               0
GRID          85       0   2.5-1   0.0+0   5.0-2       0
GRID          86       0  2.25-1   7.5-2   2.5-2       0
GRID          87       0  2.75-1   7.5-2   7.5-2       0
GRID*                 88               0  1.9999999553-1 4.63978171349-2*
*        5.76846790314-2               0
GRID*                 89               0 2.43275892735-1 5.69642424583-2*
*       -8.9406881898-10               0
GRID          90       0   2.0-1   7.5-2   0.0+0       0
GRID*                 91               0 2.43275888264-1 5.33620595932-2*
*        5.76846781373-2               0
GRID*                 92               0 2.18756186962-1 4.30357784033-2*
*        5.76846718788-2               0
GRID          93       0   2.5-1   7.5-2   5.0-2       0
GRID          94       0  2.75-1   0.0+0   2.5-2       0
GRID          95       0   2.0-1   7.5-2   5.0-2       0
GRID          96       0   2.0-1   7.5-2   2.5-2       0
GRID*                 97               0 2.74999991059-1 5.50430834293-2*
*        3.17240962386-2               0
GRID          98       0  2.75-1   2.5-2   0.0+0       0
GRID*                 99               0          2.75-1 1.94766432047-2*
*                  5.0-2               0
GRID         100       0   2.0-1   5.0-2   7.5-2       0
GRID*                101               0 2.43275892735-1 5.69642424583-2*
*        7.49999991059-2               0
GRID         102       0   2.5-1   7.5-2   2.5-2       0
GRID         103       0  2.75-1   7.5-2   0.0+0       0
GRID*                104               0 2.18756191432-1 4.66379612684-2*
*        7.49999928474-2               0
GRID         105       0   2.5-1   7.5-2   7.5-2       0
GRID         106       0  2.75-1   0.0+0   7.5-2       0
GRID         107       0   2.0-1   7.5-2   7.5-2       0
GRID         108       0  2.25-1   7.5-2   5.0-2       0
GRID         109       0  2.75-1   2.5-2   2.5-2       0
GRID         110       0  2.25-1   7.5-2   7.5-2       0
GRID         111       0  2.25-1   0.0+0   0.0+0       0
GRID*                112               0 2.49039417505-1 2.86021947861-2*
*                  0.0+0               0
GRID*                113               0 2.18756191432-1 4.66379612684-2*
*       -7.15255126238-9               0
GRID         114       0   2.0-1   2.5-2   0.0+0       0
GRID         115       0  2.25-1   0.0+0   5.0-2       0
GRID*                116               0 2.49039417505-1 2.30788379908-2*
*                  5.0-2               0
GRID*                117               0           2.0-1 1.94766432047-2*
*                  5.0-2               0
GRID         118       0   2.0-1   0.0+0   2.5-2       0
GRID         119       0   2.5-1   0.0+0   2.5-2       0
GRID*                120               0 2.43275883794-1 6.20073258877-2*
*        3.17240953445-2               0
GRID*                121               0 1.99999991059-1 5.50430834293-2*
*        3.17240962386-2               0
GRID         122       0  2.25-1   0.0+0   2.5-2       0
GRID*                123               0 2.49039417505-1 2.86021947861-2*
*                  2.5-2               0
GRID*                124               0 2.18756182492-1 5.16810446978-2*
*        3.17240890861-2               0
GRID         125       0   2.0-1   2.5-2   2.5-2       0
GRID*                126               0  2.2499999851-1 2.06773728132-2*
*                  0.0+0               0
GRID*                127               0  2.2499999851-1 1.51540160179-2*
*                  5.0-2               0
GRID*                128               0  2.2499999851-1 2.06773728132-2*
*                  2.5-2               0
GRID*                129               0-2.68220901489-9           2.0-1*
*       -1.60932401627-9               0
GRID         130       0   0.0+0  2.75-1   0.0+0       0
GRID*                131               0 7.49999955297-2           2.0-1*
*                  0.0+0               0
GRID*                132               0           0.0+0           2.0-1*
*        7.49999973178-2               0
GRID         133       0   7.5-2  2.75-1   0.0+0       1
GRID         134       0   7.5-2  2.75-1   7.5-2       0
GRID         135       0   7.5-2   2.0-1   7.5-2       0
GRID         136       0   0.0+0  2.75-1   7.5-2       0
GRID         137       0   0.0+0  -2.0-1   0.0+0       0
GRID         138       0   5.0-2 -1.25-1   0.0+0       0
GRID         139       0   7.5-2  -2.0-1   0.0+0       0
GRID         140       0   0.0+0  -2.0-1   7.5-2       0
GRID         141       0   7.5-2 -1.25-1   5.0-2       0
GRID         142       0   2.5-2 -1.25-1   0.0+0       0
GRID         143       0   5.0-2  -2.0-1   7.5-2       0
GRID         144       0   2.5-2  -2.0-1   7.5-2       0
GRID         145       0   5.0-2  -2.0-1   0.0+0       0
GRID         146       0   7.5-2  -1.5-1   7.5-2       0
GRID*                147               0 4.90394175053-2-1.71397805214-1*
*                  7.5-2               0
GRID         148       0   0.0+0  -1.5-1   0.0+0       0
GRID         149       0   7.5-2  -1.5-1   0.0+0       0
GRID         150       0   7.5-2  -2.0-1   5.0-2       0
GRID         151       0   0.0+0 -1.75-1   7.5-2       0
GRID         152       0   7.5-2 -1.25-1   2.5-2       0
GRID         153       0   0.0+0  -2.0-1   5.0-2       0
GRID         154       0   7.5-2 -1.75-1   7.5-2       0
GRID*                155               0 7.49999955297-2-1.53602182865-1*
*        5.76846790314-2               0
GRID*                156               0 2.49999985099-2-1.79322627187-1*
*                  7.5-2               0
GRID         157       0   5.0-2  -2.0-1   5.0-2       0
GRID         158       0   2.5-2 -1.25-1   2.5-2       0
GRID         159       0   7.5-2 -1.25-1   7.5-2       0
GRID*                160               0-4.47034835815-9-1.53602182865-1*
*        5.76846790314-2               0
GRID*                161               0 4.32758927345-2-1.43035757542-1*
*       -8.9406881898-10               0
GRID         162       0   0.0+0 -1.25-1   0.0+0       0
GRID*                163               0 4.32758882642-2-1.46637940407-1*
*        5.76846781373-2               0
GRID*                164               0 1.87561869621-2-1.56964221597-1*
*        5.76846718788-2               0
GRID         165       0   5.0-2 -1.25-1   5.0-2       0
GRID         166       0   7.5-2  -2.0-1   2.5-2       0
GRID         167       0   0.0+0 -1.25-1   5.0-2       0
GRID         168       0   0.0+0 -1.25-1   2.5-2       0
GRID*                169               0 7.49999910593-2-1.44956916571-1*
*        3.17240962386-2               0
GRID         170       0   7.5-2 -1.75-1   0.0+0       0
GRID*                171               0           7.5-2-1.80523356795-1*
*                  5.0-2               0
GRID         172       0   0.0+0  -1.5-1   7.5-2       0
GRID*                173               0 4.32758927345-2-1.43035757542-1*
*        7.49999991059-2               0
GRID         174       0   5.0-2 -1.25-1   2.5-2       0
GRID         175       0   7.5-2 -1.25-1   0.0+0       1
GRID*                176               0 1.87561914325-2-1.53362038732-1*
*        7.49999928474-2               0
GRID         177       0   5.0-2 -1.25-1   7.5-2       0
GRID         178       0   7.5-2  -2.0-1   7.5-2       0
GRID         179       0   0.0+0 -1.25-1   7.5-2       0
GRID         180       0   2.5-2 -1.25-1   5.0-2       0
GRID         181       0   7.5-2 -1.75-1   2.5-2       0
GRID         182       0   2.5-2 -1.25-1   7.5-2       0
GRID         183       0   2.5-2  -2.0-1   0.0+0       0
GRID*                184               0 4.90394175053-2-1.71397805214-1*
*                  0.0+0               0
GRID*                185               0 1.87561914325-2-1.53362038732-1*
*       -7.15255126238-9               0
GRID         186       0   0.0+0 -1.75-1   0.0+0       0
GRID         187       0   2.5-2  -2.0-1   5.0-2       0
GRID*                188               0 4.90394175053-2-1.76921162009-1*
*                  5.0-2               0
GRID*                189               0           0.0+0-1.80523356795-1*
*                  5.0-2               0
GRID         190       0   0.0+0  -2.0-1   2.5-2       0
GRID         191       0   5.0-2  -2.0-1   2.5-2       0
GRID*                192               0 4.32758837938-2-1.37992674112-1*
*        3.17240953445-2               0
GRID*                193               0-8.94069671631-9-1.44956916571-1*
*        3.17240962386-2               0
GRID         194       0   2.5-2  -2.0-1   2.5-2       0
GRID*                195               0 4.90394175053-2-1.71397805214-1*
*                  2.5-2               0
GRID*                196               0 1.87561824918-2-1.48318955302-1*
*        3.17240890861-2               0
GRID         197       0   0.0+0 -1.75-1   2.5-2       0
GRID*                198               0 2.49999985099-2-1.79322627187-1*
*                  0.0+0               0
GRID*                199               0 2.49999985099-2-1.84845983982-1*
*                  5.0-2               0
GRID*                200               0 2.49999985099-2-1.79322627187-1*
*                  2.5-2               0
GRID         201       0   2.0-1  -2.0-1   7.5-2       0
GRID         202       0   2.0-1 -1.25-1   2.5-2       0
GRID*                203               0           2.0-1          -2.0-1*
*       -1.3877787808-17               0
GRID         204       0  2.75-1  -2.0-1   7.5-2       0
GRID*                205               0           2.5-1         -1.25-1*
*       -1.3877787808-17               0
GRID         206       0   2.0-1 -1.25-1   5.0-2       0
GRID         207       0  2.75-1  -2.0-1   2.5-2       0
GRID         208       0  2.75-1  -2.0-1   5.0-2       0
GRID         209       0   2.0-1  -2.0-1   2.5-2       0
GRID*                210               0          2.75-1          -1.5-1*
*       -1.3877787808-17               0
GRID*                211               0          2.75-1-1.71397805214-1*
*        2.59605824947-2               0
GRID         212       0   2.0-1  -1.5-1   7.5-2       0
GRID*                213               0           2.0-1          -1.5-1*
*       -1.3877787808-17               0
GRID*                214               0           2.5-1          -2.0-1*
*       -1.3877787808-17               0
GRID         215       0  2.75-1 -1.75-1   7.5-2       0
GRID*                216               0          2.25-1         -1.25-1*
*       -1.3877787808-17               0
GRID         217       0   2.5-1  -2.0-1   7.5-2       0
GRID*                218               0          2.75-1         -1.75-1*
*       -1.3877787808-17               0
GRID*                219               0 2.57684679031-1-1.53602182865-1*
*        4.47034841089-9               0
GRID*                220               0          2.75-1-1.79322627187-1*
*        5.00000014901-2               0
GRID         221       0   2.5-1  -2.0-1   2.5-2       0
GRID         222       0  2.25-1 -1.25-1   5.0-2       0
GRID*                223               0          2.75-1         -1.25-1*
*       -1.3877787808-17               1
GRID*                224               0 2.57684679031-1-1.53602182865-1*
*        7.50000044703-2               0
GRID*                225               0 1.99999999106-1-1.43035757542-1*
*        3.17241072655-2               0
GRID         226       0   2.0-1 -1.25-1   7.5-2       0
GRID*                227               0 2.57684678137-1-1.46637940407-1*
*        3.17241117358-2               0
GRID*                228               0 2.57684671879-1-1.56964221597-1*
*        5.62438130379-2               0
GRID         229       0   2.5-1 -1.25-1   2.5-2       0
GRID*                230               0          2.25-1          -2.0-1*
*       -1.3877787808-17               0
GRID         231       0   2.5-1 -1.25-1   7.5-2       0
GRID         232       0  2.25-1 -1.25-1   7.5-2       0
GRID*                233               0 2.31724096239-1-1.44956916571-1*
*        8.94069672464-9               0
GRID*                234               0           2.0-1         -1.75-1*
*       -1.3877787808-17               0
GRID*                235               0           2.5-1-1.80523356795-1*
*       -1.3877787808-17               0
GRID         236       0  2.75-1  -1.5-1   7.5-2       0
GRID*                237               0 2.74999999106-1-1.43035757542-1*
*        3.17241072655-2               0
GRID         238       0  2.25-1 -1.25-1   2.5-2       0
GRID*                239               0           2.0-1         -1.25-1*
*       -1.3877787808-17               0
GRID*                240               0 2.74999992847-1-1.53362038732-1*
*        5.62438085675-2               0
GRID         241       0  2.75-1 -1.25-1   2.5-2       0
GRID*                242               0          2.75-1          -2.0-1*
*       -1.3877787808-17               0
GRID         243       0  2.75-1 -1.25-1   7.5-2       0
GRID         244       0   2.5-1 -1.25-1   5.0-2       0
GRID*                245               0          2.25-1         -1.75-1*
*       -1.3877787808-17               0
GRID         246       0  2.75-1 -1.25-1   5.0-2       0
GRID         247       0   2.0-1  -2.0-1   5.0-2       0
GRID*                248               0           2.0-1-1.71397805214-1*
*        2.59605824947-2               0
GRID*                249               0 1.99999992847-1-1.53362038732-1*
*        5.62438085675-2               0
GRID         250       0   2.0-1 -1.75-1   7.5-2       0
GRID         251       0   2.5-1  -2.0-1   5.0-2       0
GRID*                252               0           2.5-1-1.76921162009-1*
*        2.59605824947-2               0
GRID*                253               0           2.5-1-1.80523356795-1*
*                  7.5-2               0
GRID         254       0  2.25-1  -2.0-1   7.5-2       0
GRID         255       0  2.25-1  -2.0-1   2.5-2       0
GRID*                256               0 2.31724095345-1-1.37992674112-1*
*        3.17241162062-2               0
GRID*                257               0 2.31724096239-1-1.44956916571-1*
*        7.50000089407-2               0
GRID         258       0  2.25-1  -2.0-1   5.0-2       0
GRID*                259               0          2.25-1-1.71397805214-1*
*        2.59605824947-2               0
GRID*                260               0 2.31724089086-1-1.48318955302-1*
*        5.62438175082-2               0
GRID         261       0  2.25-1 -1.75-1   7.5-2       0
GRID*                262               0           2.0-1-1.79322627187-1*
*        5.00000014901-2               0
GRID*                263               0           2.5-1-1.84845983982-1*
*        5.00000014901-2               0
GRID*                264               0          2.25-1-1.79322627187-1*
*        5.00000014901-2               0
GRID         265       0   0.0+0  -4.0-1   7.5-2       0
GRID*                266               0           0.0+0       -3.8125-1*
*                  7.5-2               0
GRID         267       0   0.0+0-3.625-1   7.5-2       0
GRID*                268               0           0.0+0       -3.4375-1*
*                  7.5-2               0
GRID         269       0   0.0+0 -3.25-1   7.5-2       0
GRID         270       0 1.875-2  -4.0-1   7.5-2       0
GRID         271       0  3.75-2  -4.0-1   7.5-2       0
GRID         272       0 5.625-2  -4.0-1   7.5-2       0
GRID         273       0   7.5-2  -4.0-1   7.5-2       0
GRID         274       0   0.0+0  -4.0-1 5.625-2       0
GRID         275       0   0.0+0  -4.0-1  3.75-2       0
GRID         276       0   0.0+0  -4.0-1 1.875-2       0
GRID         277       0   0.0+0  -4.0-1   0.0+0       0
GRID         278       0 1.875-2  -4.0-1   0.0+0       0
GRID         279       0  3.75-2  -4.0-1   0.0+0       0
GRID         280       0 5.625-2  -4.0-1   0.0+0       0
GRID         281       0   7.5-2  -4.0-1   0.0+0       0
GRID*                282               0           7.5-2       -3.8125-1*
*                  0.0+0               0
GRID         283       0   7.5-2-3.625-1   0.0+0       0
GRID*                284               0           7.5-2       -3.4375-1*
*                  0.0+0               0
GRID         285       0   7.5-2 -3.25-1   0.0+0       0
GRID         286       0   7.5-2  -4.0-1 1.875-2       0
GRID         287       0   7.5-2  -4.0-1  3.75-2       0
GRID         288       0   7.5-2  -4.0-1 5.625-2       0
GRID         289       0   7.5-2 -3.25-1   7.5-2       0
GRID         290       0 5.625-2 -3.25-1   7.5-2       0
GRID         291       0  3.75-2 -3.25-1   7.5-2       0
GRID         292       0 1.875-2 -3.25-1   7.5-2       0
GRID*                293               0           7.5-2       -3.4375-1*
*                  7.5-2               0
GRID         294       0   7.5-2-3.625-1   7.5-2       0
GRID*                295               0           7.5-2       -3.8125-1*
*                  7.5-2               0
GRID         296       0   7.5-2 -3.25-1 5.625-2       0
GRID         297       0   7.5-2 -3.25-1  3.75-2       0
GRID         298       0   7.5-2 -3.25-1 1.875-2       0
GRID         299       0   0.0+0 -3.25-1   0.0+0       0
GRID         300       0   0.0+0 -3.25-1 1.875-2       0
GRID         301       0   0.0+0 -3.25-1  3.75-2       0
GRID         302       0   0.0+0 -3.25-1 5.625-2       0
GRID*                303               0           0.0+0       -3.8125-1*
*                  0.0+0               0
GRID         304       0   0.0+0-3.625-1   0.0+0       0
GRID*                305               0           0.0+0       -3.4375-1*
*                  0.0+0               0
GRID         306       0 1.875-2 -3.25-1   0.0+0       0
GRID         307       0  3.75-2 -3.25-1   0.0+0       0
GRID         308       0 5.625-2 -3.25-1   0.0+0       0
GRID*                309               0           7.5-2-3.79663147954-1*
*        1.39603287145-2               0
GRID*                310               0           7.5-2-3.73034198702-1*
*        3.30049412315-2               0
GRID*                311               0           7.5-2-3.76878413932-1*
*        5.40937499714-2               0
GRID*                312               0  7.4999997573-2-3.50375955752-1*
*        5.10810680159-2               0
GRID*                313               0 7.49999914254-2-3.45328540265-1*
*        2.75494138292-2               0
GRID*                314               0 7.49999950323-2-3.60075499553-1*
*        1.60377879023-2               0
GRID*                315               0 4.66846904275-2         -3.25-1*
*        5.74626050625-2               0
GRID*                316               0 2.56249990067-2         -3.25-1*
*        5.87751970369-2               0
GRID*                317               0 5.49851747941-2         -3.25-1*
*        1.98615540326-2               0
GRID*                318               0 5.29374175912-2         -3.25-1*
*        3.92650901826-2               0
GRID*                319               0 1.72166577911-2         -3.25-1*
*        2.65514211176-2               0
GRID*                320               0 3.54621626456-2         -3.25-1*
*         2.1410760058-2               0
GRID*                321               0 1.52835819379-2         -3.25-1*
*        4.42912689066-2               0
GRID*                322               0 3.27735870332-2         -3.25-1*
*        4.10854204095-2               0
GRID*                323               0    -7.460752-10-3.74375006308-1*
*        5.87752072505-2               0
GRID*                324               0           0.0+0-3.84716423447-1*
*        4.42912791331-2               0
GRID*                325               0           0.0+0-3.82783345708-1*
*        2.65514317147-2               0
GRID*                326               0    -5.5975181-9-3.45014829287-1*
*        1.98615639666-2               0
GRID*                327               0    -7.4109819-9-3.47062588058-1*
*        3.92650975838-2               0
GRID*                328               0    -1.6712932-9-3.64537840503-1*
*        2.14107690105-2               0
$ ... 72 like lines cut
PARAM    STR_CID      -2
$--1---><--2---><--3---><--4---><--5---><--6---><--7---><--8---><--9---><--10-->
$$$$$$$$$$$$$$$$$$$$$$$$$$$$$$$$$$$ Material $$$$$$$$$$$$$$$$$$$$$$$$$$$$$$$$$$$
MAT1*                  1          1.1+11 4.2307692308+10           3.0-1*
*                  0.0+0           0.0+0           0.0+0
$--1---><--2---><--3---><--4---><--5---><--6---><--7---><--8---><--9---><--10-->
CORD2R*                1               0           0.0+0           0.0+0*
*                  0.0+0           0.0+0           0.0+0           1.0+0*
*        7.07106781187-1-7.07106781187-1           0.0+0                *
*
SPC            1       1       1   0.0+0
SPC            1       1       2   0.0+0
SPC            1       1       3   0.0+0
SPC            1       3       3   0.0+0
SPC            1      26       3   0.0+0
SPC            1      39       1   0.0+0
SPC            1      65       1   0.0+0
SPC            1      65       2   0.0+0
SPC            1      65       3   0.0+0
SPC            1      66       3   0.0+0
SPC            1      67       3   0.0+0
SPC            1      67       2   0.0+0
SPC            1      68       2   0.0+0
SPC            1      70       3   0.0+0
SPC            1      71       2   0.0+0
SPC            1      72       2   0.0+0
SPC            1      73       3   0.0+0
SPC            1      73       2   0.0+0
SPC            1      76       3   0.0+0
SPC            1      77       3   0.0+0
$ ... 88 like lines cut
$--1---><--2---><--3---><--4---><--5---><--6---><--7---><--8---><--9---><--10-->
$$$$$$$$$$$$$$$$$$$$$$$$$$$$$$$$$$$ Default $$$$$$$$$$$$$$$$$$$$$$$$$$$$$$$$$$$$
PSOLID         2       1       0       2               1
CHEXA          1       2      27      19       5      29      37      10+
+             23      41
CHEXA          2       2      49      25       2       6      60      56+
+             38      22
CHEXA          3       2      55      30      45      59      21      14+
+             35      52
CHEXA          4       2      52      35      19      27      11      18+
+             10      37
CHEXA          5       2      59      45      33      56      52      35+
+             19      27
CHEXA          6       2      21      14      35      52       7      42+
+             18      11
CHEXA          7       2      12      49       6      26      57      60+
+             22      32
CHEXA          8       2      25      13      39       2      56      33+
+             16      38
CHEXA          9       2      24      28      44      31      36      40+
+             46      43
CHEXA         10       2      28      27      29      44      40      37+
+             41      46
CHEXA         11       2      53      63      28      24      15      20+
+             40      36
CHEXA         12       2      63      52      27      28      20      11+
+             37      40
CHEXA         13       2      56      33      16      38      27      19+
+              5      29
CHEXA         14       2      57      60      22      32      24      28+
+             44      31
CHEXA         15       2      51      21      52      63       8       7+
+             11      20
CHEXA         16       2      17      51      63      53       4       8+
+             20      15
CHEXA         17       2       1      47      62      50      54      58+
+             64      61
CHEXA         18       2      47       9      48      62      58      55+
+             59      64
CHEXA         19       2      62      48      25      49      64      59+
+             56      60
CHEXA         20       2      50      62      49      12      61      64+
+             60      57
$ ... 70 like lines cut
PSOLID         3       1       0       2               1
CPENTA        56       3     141     165     163     159     177     173
CPENTA        57       3     138     142     185     174     158     196
CPENTA        58       3     181     195     191     171     188     157
CPENTA        59       3     155     163     188     146     173     147
CPENTA        60       3     169     192     195     155     163     188
CPENTA        61       3     171     188     157     154     147     143
CPENTA        62       3     142     162     148     158     168     193
CPENTA        63       3     175     138     161     152     174     192
CPENTA        64       3     180     167     160     182     179     172
CPENTA        65       3     165     180     164     177     182     176
CPENTA        66       3     164     160     189     176     172     151
CPENTA        67       3     163     164     199     173     176     156
CPENTA        68       3     152     174     192     141     165     163
CPENTA        69       3     158     168     193     180     167     160
CPENTA        70       3     188     199     187     147     156     144
CPENTA        71       3     199     189     153     156     151     140
CPENTA        72       3     198     186     137     200     197     190
CPENTA        73       3     184     198     183     195     200     194
CPENTA        74       3     161     185     198     192     196     200
CPENTA        75       3     185     148     186     196     193     197
$ ... 88 like lines cut
PSOLID         4       1       0                        
CTETRA       164       4     329     331     332     267
CTETRA       165       4     274     324     323     343
CTETRA       166       4     364     317     313     354
CTETRA       167       4     338     362     359     315
CTETRA       168       4     342     341     271     337
CTETRA       169       4     341     271     337     333
CTETRA       170       4     360     302     301     327
CTETRA       171       4     345     352     363     309
CTETRA       172       4     298     308     285     284
CTETRA       173       4     349     363     359     348
CTETRA       174       4     272     295     311     336
CTETRA       175       4     350     363     348     345
CTETRA       176       4     272     342     337     336
CTETRA       177       4     361     349     359     337
CTETRA       178       4     361     350     344     363
CTETRA       179       4     309     364     352     363
CTETRA       180       4     309     352     364     353
CTETRA       181       4     349     363     348     350
CTETRA       182       4     349     363     350     361
CTETRA       183       4     342     362     311     359
$ ... 224 like lines cut
$--1---><--2---><--3---><--4---><--5---><--6---><--7---><--8---><--9---><--10-->
$$$$$$$$$$$$$$$$$$$$$$$$$$$$$$$$$$$$ force $$$$$$$$$$$$$$$$$$$$$$$$$$$$$$$$$$$$$
FORCE*                 2              33               0           1.0+0*
*                  0.0+0 6.25851633124+1           0.0+0
FORCE*                 2              16               0           1.0+0*
*                  0.0+0 2.56658318722+1           0.0+0
FORCE*                 2              19               0           1.0+0*
*                  0.0+0 5.43910109112+1           0.0+0
FORCE*                 2               5               0           1.0+0*
*                  0.0+0 2.78004658747+1           0.0+0
FORCE*                 2              13               0           1.0+0*
*                  0.0+0 3.27585898064+1           0.0+0
FORCE*                 2              39               0           1.0+0*
*                  0.0+0 1.42001875573+1           0.0+0
FORCE*                 2              10               0           1.0+0*
*                  0.0+0  2.2793857723+1           0.0+0
FORCE*                 2              23               0           1.0+0*
*                  0.0+0 1.31328710803+1           0.0+0
FORCE*                 2              45               0           1.0+0*
*                  0.0+0 6.11031959676+1           0.0+0
FORCE*                 2              35               0           1.0+0*
*                  0.0+0 5.30424614444+1           0.0+0
FORCE*                 2              34               0           1.0+0*
*                  0.0+0 2.99568851237+1           0.0+0
FORCE*                 2              18               0           1.0+0*
*                  0.0+0 2.53732090996+1           0.0+0
FORCE*                 2              30               0           1.0+0*
*                  0.0+0 2.67549339268+1           0.0+0
FORCE*                 2              14               0           1.0+0*
*                  0.0+0 2.36864023738+1           0.0+0
FORCE*                 2               3               0           1.0+0*
*                  0.0+0 1.38888888889+1           0.0+0
FORCE*                 2              42               0           1.0+0*
*                  0.0+0 1.28660450379+1           0.0+0
FORCE          2     131       0   1.0+0   0.0+0  1.25+2   0.0+0
FORCE          2     133       0   1.0+0   0.0+0  1.25+2   0.0+0
FORCE          2     135       0   1.0+0   0.0+0  1.25+2   0.0+0
FORCE          2     134       0   1.0+0   0.0+0  1.25+2   0.0+0
FORCE*                 2             166               0           1.0+0*
*                  0.0+0 2.67549339268+1           0.0+0
FORCE*                 2             181               0           1.0+0*
*                  0.0+0 6.11031959676+1           0.0+0
FORCE*                 2             150               0           1.0+0*
*                  0.0+0 2.36864023738+1           0.0+0
FORCE*                 2             171               0           1.0+0*
*                  0.0+0 5.30424614444+1           0.0+0
FORCE*                 2             155               0           1.0+0*
*                  0.0+0 5.43910109112+1           0.0+0
FORCE*                 2             154               0           1.0+0*
*                  0.0+0 2.53732090996+1           0.0+0
FORCE*                 2             146               0           1.0+0*
*                  0.0+0  2.2793857723+1           0.0+0
FORCE*                 2             169               0           1.0+0*
*                  0.0+0 6.25851633124+1           0.0+0
FORCE*                 2             178               0           1.0+0*
*                  0.0+0 1.28660450379+1           0.0+0
FORCE*                 2             149               0           1.0+0*
*                  0.0+0 3.27585898064+1           0.0+0
FORCE*                 2             175               0           1.0+0*
*                  0.0+0 1.42001875573+1           0.0+0
FORCE*                 2             152               0           1.0+0*
*                  0.0+0 2.56658318722+1           0.0+0
FORCE*                 2             141               0           1.0+0*
*                  0.0+0 2.78004658747+1           0.0+0
FORCE*                 2             139               0           1.0+0*
*                  0.0+0 1.38888888889+1           0.0+0
FORCE*                 2             170               0           1.0+0*
*                  0.0+0 2.99568851237+1           0.0+0
FORCE*                 2             236               0           1.0+0*
*                  0.0+0 2.43979339246+1           0.0+0
FORCE*                 2             240               0           1.0+0*
*                  0.0+0  5.0766727083+1           0.0+0
FORCE*                 2             246               0           1.0+0*
*                  0.0+0 2.79556551465+1           0.0+0
FORCE*                 2             159               0           1.0+0*
*                  0.0+0 1.31328710803+1           0.0+0
FORCE*                 2             220               0           1.0+0*
*                  0.0+0 5.46597716084+1           0.0+0
$ ... 24 like lines cut
$--1---><--2---><--3---><--4---><--5---><--6---><--7---><--8---><--9---><--10-->
$$$$$$$$$$$$$$$$$$$$$$$$$$$$$$$$$$$$ force $$$$$$$$$$$$$$$$$$$$$$$$$$$$$$$$$$$$$
FORCE*                 2              38               0           1.0+0*
*        5.55555555556+1           0.0+0           0.0+0
FORCE*                 2              22               0           1.0+0*
*        5.55555555556+1           0.0+0           0.0+0
FORCE*                 2              29               0           1.0+0*
*        5.55555555556+1           0.0+0           0.0+0
FORCE*                 2              44               0           1.0+0*
*        5.55555555556+1           0.0+0           0.0+0
FORCE*                 2               2               0           1.0+0*
*        2.77777777778+1           0.0+0           0.0+0
FORCE*                 2               6               0           1.0+0*
*        2.77777777778+1           0.0+0           0.0+0
FORCE*                 2              32               0           1.0+0*
*        2.77777777778+1           0.0+0           0.0+0
FORCE*                 2              31               0           1.0+0*
*        2.77777777778+1           0.0+0           0.0+0
FORCE*                 2              41               0           1.0+0*
*        2.77777777778+1           0.0+0           0.0+0
FORCE*                 2              46               0           1.0+0*
*        2.77777777778+1           0.0+0           0.0+0
FORCE*                 2              16               0           1.0+0*
*        2.77777777778+1           0.0+0           0.0+0
FORCE*                 2               5               0           1.0+0*
*        2.77777777778+1           0.0+0           0.0+0
FORCE*                 2              26               0           1.0+0*
*        1.38888888889+1           0.0+0           0.0+0
FORCE*                 2              39               0           1.0+0*
*        1.38888888889+1           0.0+0           0.0+0
FORCE*                 2              43               0           1.0+0*
*        1.38888888889+1           0.0+0           0.0+0
FORCE*                 2              23               0           1.0+0*
*        1.38888888889+1           0.0+0           0.0+0
FORCE          2     133       0   1.0+0  1.25+2   0.0+0   0.0+0
FORCE          2     130       0   1.0+0  1.25+2   0.0+0   0.0+0
FORCE          2     134       0   1.0+0  1.25+2   0.0+0   0.0+0
FORCE          2     136       0   1.0+0  1.25+2   0.0+0   0.0+0
FORCE*                 2             138               0           1.0+0*
*        2.77777777778+1           0.0+0           0.0+0
FORCE*                 2             142               0           1.0+0*
*        2.77777777778+1           0.0+0           0.0+0
FORCE*                 2             174               0           1.0+0*
*        5.55555555556+1           0.0+0           0.0+0
FORCE*                 2             158               0           1.0+0*
*        5.55555555556+1           0.0+0           0.0+0
FORCE*                 2             162               0           1.0+0*
*        1.38888888889+1           0.0+0           0.0+0
FORCE*                 2             168               0           1.0+0*
*        2.77777777778+1           0.0+0           0.0+0
FORCE*                 2             175               0           1.0+0*
*        1.38888888889+1           0.0+0           0.0+0
FORCE*                 2             152               0           1.0+0*
*        2.77777777778+1           0.0+0           0.0+0
FORCE*                 2             180               0           1.0+0*
*        5.55555555556+1           0.0+0           0.0+0
FORCE*                 2             167               0           1.0+0*
*        2.77777777778+1           0.0+0           0.0+0
FORCE*                 2             182               0           1.0+0*
*        2.77777777778+1           0.0+0           0.0+0
FORCE*                 2             179               0           1.0+0*
*        1.38888888889+1           0.0+0           0.0+0
FORCE*                 2             165               0           1.0+0*
*        5.55555555556+1           0.0+0           0.0+0
FORCE*                 2             177               0           1.0+0*
*        2.77777777778+1           0.0+0           0.0+0
FORCE*                 2             141               0           1.0+0*
*        2.77777777778+1           0.0+0           0.0+0
FORCE*                 2             239               0           1.0+0*
*        1.38888888889+1           0.0+0           0.0+0
FORCE*                 2             202               0           1.0+0*
*        2.77777777778+1           0.0+0           0.0+0
FORCE*                 2             216               0           1.0+0*
*        2.77777777778+1           0.0+0           0.0+0
FORCE*                 2             238               0           1.0+0*
*        5.55555555556+1           0.0+0           0.0+0
FORCE*                 2             159               0           1.0+0*
*        1.38888888889+1           0.0+0           0.0+0
$ ... 24 like lines cut
$--1---><--2---><--3---><--4---><--5---><--6---><--7---><--8---><--9---><--10-->
$$$$$$$$$$$$$$$$$$$$$$$$$$$$$$$$$$$$ force $$$$$$$$$$$$$$$$$$$$$$$$$$$$$$$$$$$$$
FORCE*                 2              61               0           1.0+0*
*                  0.0+0-6.11031960769+1           0.0+0
FORCE*                 2              57               0           1.0+0*
*                  0.0+0-6.25851634243+1           0.0+0
FORCE*                 2              53               0           1.0+0*
*                  0.0+0-5.30424615392+1           0.0+0
FORCE*                 2              24               0           1.0+0*
*                  0.0+0-5.43910110085+1           0.0+0
FORCE*                 2              50               0           1.0+0*
*                  0.0+0-2.99568851773+1           0.0+0
FORCE*                 2              12               0           1.0+0*
*                  0.0+0 -3.2758589865+1           0.0+0
FORCE*                 2              54               0           1.0+0*
*                  0.0+0-2.67549339746+1           0.0+0
FORCE*                 2              17               0           1.0+0*
*                  0.0+0-2.36864024162+1           0.0+0
FORCE*                 2              15               0           1.0+0*
*                  0.0+0-2.53732091449+1           0.0+0
FORCE*                 2              36               0           1.0+0*
*                  0.0+0-2.27938577637+1           0.0+0
FORCE*                 2              32               0           1.0+0*
*                  0.0+0-2.56658319181+1           0.0+0
FORCE*                 2              31               0           1.0+0*
*                  0.0+0-2.78004659244+1           0.0+0
FORCE*                 2               1               0           1.0+0*
*                  0.0+0-1.38888889137+1           0.0+0
FORCE*                 2              26               0           1.0+0*
*                  0.0+0-1.42001875827+1           0.0+0
FORCE*                 2               4               0           1.0+0*
*                  0.0+0-1.28660450609+1           0.0+0
FORCE*                 2              43               0           1.0+0*
*                  0.0+0-1.31328711038+1           0.0+0
FORCE*                 2             129               0           1.0+0*
*                  0.0+0-1.24999999031+2           0.0+0
FORCE*                 2             130               0           1.0+0*
*                  0.0+0-1.24999999627+2           0.0+0
FORCE*                 2             132               0           1.0+0*
*                  0.0+0-1.24999999031+2           0.0+0
FORCE*                 2             136               0           1.0+0*
*                  0.0+0-1.24999999627+2           0.0+0
$ ... 64 like lines cut
$--1---><--2---><--3---><--4---><--5---><--6---><--7---><--8---><--9---><--10-->
$$$$$$$$$$$$$$$$$$$$$$$$$$$$$$$$$$$$ force $$$$$$$$$$$$$$$$$$$$$$$$$$$$$$$$$$$$$
FORCE*                 2              54               0           1.0+0*
*       -2.77777779102+1           0.0+0           0.0+0
FORCE*                 2              58               0           1.0+0*
*       -5.55555558205+1           0.0+0           0.0+0
FORCE*                 2              17               0           1.0+0*
*       -2.77777779102+1           0.0+0           0.0+0
FORCE*                 2              51               0           1.0+0*
*       -5.55555558205+1           0.0+0           0.0+0
FORCE*                 2               1               0           1.0+0*
*       -1.38888889551+1           0.0+0           0.0+0
FORCE*                 2              47               0           1.0+0*
*       -2.77777779102+1           0.0+0           0.0+0
FORCE*                 2              55               0           1.0+0*
*       -5.55555558205+1           0.0+0           0.0+0
FORCE*                 2              21               0           1.0+0*
*       -5.55555558205+1           0.0+0           0.0+0
FORCE*                 2               4               0           1.0+0*
*       -1.38888889551+1           0.0+0           0.0+0
FORCE*                 2               8               0           1.0+0*
*       -2.77777779102+1           0.0+0           0.0+0
FORCE*                 2               9               0           1.0+0*
*       -2.77777779102+1           0.0+0           0.0+0
FORCE*                 2              30               0           1.0+0*
*       -2.77777779102+1           0.0+0           0.0+0
FORCE*                 2              14               0           1.0+0*
*       -2.77777779102+1           0.0+0           0.0+0
FORCE*                 2               7               0           1.0+0*
*       -2.77777779102+1           0.0+0           0.0+0
FORCE*                 2               3               0           1.0+0*
*       -1.38888889551+1           0.0+0           0.0+0
FORCE*                 2              42               0           1.0+0*
*       -1.38888889551+1           0.0+0           0.0+0
FORCE*                 2             129               0           1.0+0*
*       -1.24999997417+2           0.0+0           0.0+0
FORCE*                 2             131               0           1.0+0*
*       -1.24999998013+2           0.0+0           0.0+0
FORCE*                 2             132               0           1.0+0*
*       -1.24999998411+2           0.0+0           0.0+0
FORCE*                 2             135               0           1.0+0*
*       -1.24999999007+2           0.0+0           0.0+0
$ ... 64 like lines cut
$--1---><--2---><--3---><--4---><--5---><--6---><--7---><--8---><--9---><--10-->
$$$$$$$$$$$$$$$$$$$$$$$$$$$$$$$$$$$$ force $$$$$$$$$$$$$$$$$$$$$$$$$$$$$$$$$$$$$
FORCE*                 2             104               0           1.0+0*
*                  0.0+0           0.0+0 1.58446584672+2
FORCE*                 2             101               0           1.0+0*
*                  0.0+0           0.0+0 1.74874301581+2
FORCE*                 2             105               0           1.0+0*
*                  0.0+0           0.0+0 7.17251517967+1
FORCE*                 2             110               0           1.0+0*
*                  0.0+0           0.0+0 8.17312227616+1
FORCE*                 2              84               0           1.0+0*
*                  0.0+0           0.0+0 1.59624091288+2
FORCE*                 2              75               0           1.0+0*
*                  0.0+0           0.0+0 1.86458093721+2
FORCE*                 2              74               0           1.0+0*
*                  0.0+0           0.0+0 9.64186356561+1
FORCE*                 2              87               0           1.0+0*
*                  0.0+0           0.0+0 4.15332582262+1
FORCE*                 2             100               0           1.0+0*
*                  0.0+0           0.0+0 7.12598918669+1
FORCE*                 2             107               0           1.0+0*
*                  0.0+0           0.0+0 4.00656834245+1
FORCE*                 2              72               0           1.0+0*
*                  0.0+0           0.0+0  7.5287329644+1
FORCE*                 2              71               0           1.0+0*
*                  0.0+0           0.0+0 8.90290240348+1
FORCE*                 2              82               0           1.0+0*
*                  0.0+0           0.0+0 9.26830039518+1
FORCE*                 2              79               0           1.0+0*
*                  0.0+0           0.0+0 7.73969781524+1
FORCE*                 2             106               0           1.0+0*
*                  0.0+0           0.0+0 4.42015429338+1
FORCE*                 2              68               0           1.0+0*
*                  0.0+0           0.0+0 3.92652062906+1
FORCE*                 2             338               0           1.0+0*
*                  0.0+0           0.0+0 9.27004040374+1
FORCE*                 2             340               0           1.0+0*
*                  0.0+0           0.0+0 7.93118361049+1
FORCE*                 2             332               0           1.0+0*
*                  0.0+0           0.0+0 8.91379506124+1
FORCE*                 2             292               0           1.0+0*
*                  0.0+0           0.0+0  7.0334201994+1
$ ... 44 like lines cut
$--1---><--2---><--3---><--4---><--5---><--6---><--7---><--8---><--9---><--10-->
LOAD           1   1.0+0   1.0+0       2
ENDDATA 
