$ Generated by Mecway 33
$-----------------------EXECUTIVE CONTROL SECTION-----------------------
SOL 101
CEND
$-------------------------CASE CONTROL SECTION--------------------------
DISPLACEMENT = ALL
SPCFORCES = ALL
MPCFORCES = ALL
SPC = 1
LOAD = 1
BEGIN BULK
$---------------------------BULK DATA SECTION---------------------------
GRID           1       0   0.0+0   0.0+0   0.0+0       0
GRID           2       0   7.5-1   5.0-1   0.0+0       0
GRID           3       0   7.5-1   2.5-1   0.0+0       0
GRID           4       0   0.0+0   2.5-1   0.0+0       0
GRID           5       0   5.0-1   0.0+0   0.0+0       0
GRID           6       0   7.5-1   7.5-1   0.0+0       0
GRID*                  7               0 3.45096189432-1 1.95096189432-1*
*                  0.0+0               0
GRID           8       0   0.0+0   5.0-1   0.0+0       0
GRID*                  9               0 4.36602540378-1 5.36602540378-1*
*                  0.0+0               0
GRID*                 10               0 2.20096189432-1 4.11602540378-1*
*                  0.0+0               0
GRID          11       0   5.0-1   7.5-1   0.0+0       0
GRID          12       0   7.5-1   0.0+0   0.0+0       0
GRID          13       0   0.0+0   7.5-1   0.0+0       0
GRID          14       0   2.5-1   7.5-1   0.0+0       0
GRID          15       0   2.5-1   0.0+0   0.0+0       0
GRID*                 16               0 5.61602540378-1 3.20096189432-1*
*                  0.0+0               0
GRID          17       0   2.0+0   0.0+0   0.0+0       0
GRID*                 18               0          2.75+0 3.0615158846-17*
*                  5.0-1               0
GRID*                 19               0          2.75+0 1.5307579423-17*
*                  2.5-1               0
GRID*                 20               0           2.0+0 1.5307579423-17*
*                  2.5-1               0
GRID          21       0   2.5+0   0.0+0   0.0+0       0
GRID*                 22               0          2.75+0 4.5922738268-17*
*                  7.5-1               0
GRID*                 23               0 2.34509618943+0 1.1945801659-17*
*        1.95096189432-1               0
GRID*                 24               0           2.0+0 3.0615158846-17*
*                  5.0-1               0
GRID*                 25               0 2.43660254038+0 3.2856344021-17*
*        5.36602540378-1               0
GRID*                 26               0 2.22009618943+0  2.520255431-17*
*        4.11602540378-1               0
GRID*                 27               0           2.5+0 4.5922738268-17*
*                  7.5-1               0
GRID          28       0  2.75+0   0.0+0   0.0+0       0
GRID*                 29               0           2.0+0 4.5922738268-17*
*                  7.5-1               0
GRID*                 30               0          2.25+0 4.5922738268-17*
*                  7.5-1               0
GRID          31       0  2.25+0   0.0+0   0.0+0       0
GRID*                 32               0 2.56160254038+0 1.9599591371-17*
*        3.20096189432-1               0
PARAM    STR_CID      -2
$--1---><--2---><--3---><--4---><--5---><--6---><--7---><--8---><--9---><--10-->
$$$$$$$$$$$$$$$$$$$$$$$$$$$$$$$$$$$ Material $$$$$$$$$$$$$$$$$$$$$$$$$$$$$$$$$$$
MAT1*                  1          2.0+11 7.4074074074+10           3.5-1*
*                  0.0+0           0.0+0           0.0+0
$--1---><--2---><--3---><--4---><--5---><--6---><--7---><--8---><--9---><--10-->
SPC            1       1       1   0.0+0
SPC            1       1       2   0.0+0
SPC            1       1       3   0.0+0
SPC            1       6       3   0.0+0
SPC            1      12       3   0.0+0
SPC            1      13       3   0.0+0
SPC            1      13       1   0.0+0
SPC            1      17       1   0.0+0
SPC            1      17       2   0.0+0
SPC            1      17       3   0.0+0
SPC            1      22       2   0.0+0
SPC            1      28       2   0.0+0
SPC            1      29       1   0.0+0
SPC            1      29       2   0.0+0
$--1---><--2---><--3---><--4---><--5---><--6---><--7---><--8---><--9---><--10-->
$$$$$$$$$$$$$$$$$$$$$$$$$$$$$$$$$$$ Default $$$$$$$$$$$$$$$$$$$$$$$$$$$$$$$$$$$$
PSHELL         1       1   1.0-2       1               1           0.0+0
CQUAD4         1       1       9       2       6      11   0.0+0   0.0+0
CQUAD4         2       1       5      12       3      16   0.0+0   0.0+0
CQUAD4         3       1      16       3       2       9   0.0+0   0.0+0
CQUAD4         4       1       4       7      10       8   0.0+0   0.0+0
CQUAD4         5       1       8      10      14      13   0.0+0   0.0+0
CQUAD4         6       1      10       9      11      14   0.0+0   0.0+0
CQUAD4         7       1       7      16       9      10   0.0+0   0.0+0
CQUAD4         8       1      15       5      16       7   0.0+0   0.0+0
CQUAD4         9       1       1      15       7       4   0.0+0   0.0+0
CQUAD4        10       1      25      18      22      27   0.0+0   0.0+0
CQUAD4        11       1      21      28      19      32   0.0+0   0.0+0
CQUAD4        12       1      32      19      18      25   0.0+0   0.0+0
CQUAD4        13       1      20      23      26      24   0.0+0   0.0+0
CQUAD4        14       1      24      26      30      29   0.0+0   0.0+0
CQUAD4        15       1      26      25      27      30   0.0+0   0.0+0
CQUAD4        16       1      23      32      25      26   0.0+0   0.0+0
CQUAD4        17       1      31      21      32      23   0.0+0   0.0+0
CQUAD4        18       1      17      31      23      20   0.0+0   0.0+0
$--1---><--2---><--3---><--4---><--5---><--6---><--7---><--8---><--9---><--10-->
$$$$$$$$$$$$$$$$$$$$$$$$$$$$$$$$$$$$ force $$$$$$$$$$$$$$$$$$$$$$$$$$$$$$$$$$$$$
FORCE          2       1       0   1.0+0  5.0-10   0.0+0   0.0+0
FORCE          2      17       0   1.0+0  5.0-10   0.0+0   0.0+0
$--1---><--2---><--3---><--4---><--5---><--6---><--7---><--8---><--9---><--10-->
LOAD           1   1.0+0   1.0+0       2
PARAM,QUAD4TYP,MITC4+

PLOAD2,1,44.0,1,2,3,4,5,6
PLOAD2,1,44.0,7,8,9

PLOAD4,1,10,-80.0,-80.0,-80.0,-80.0
PLOAD4,1,11,-80.0,-80.0,-80.0
PLOAD4,1,12,-80.0,-80.0
PLOAD4,1,13,-80.0
PLOAD4,1,14,-80.0,-80.0,-80.0,-80.0,THRU,18

ENDDATA 
