$ Generated by Mecway 33
$-----------------------EXECUTIVE CONTROL SECTION-----------------------
SOL 101
CEND
$-------------------------CASE CONTROL SECTION--------------------------
DISPLACEMENT = ALL
SPCFORCES = ALL
MPCFORCES = ALL
STRESS(CORNER) = ALL
STRAIN(CORNER) = ALL
FORCE(CORNER) = ALL
SPC = 1
LOAD = 1
BEGIN BULK
$---------------------------BULK DATA SECTION---------------------------
GRID*                  1               0          -1.5+0           2.1+1*
*        2.59807621135+0               0
GRID*                  2               0-2.29813332936+0           2.0+1*
*        1.92836282906+0               0
GRID*                  3               0          -3.0+0           1.8+1*
*        2.0902469209-15               0
GRID*                  4               0 2.81907786236+0           2.0+1*
*       -1.02606042998+0               0
GRID*                  5               0 5.20944533001-1           1.9+1*
*        2.95442325904+0               0
GRID*                  6               0-5.20944533001-1           2.0+1*
*        2.95442325904+0               0
GRID*                  7               0-2.81907786236+0           1.7+1*
*       -1.02606042998+0               0
GRID*                  8               0-2.81907786236+0           2.1+1*
*       -1.02606042998+0               0
GRID*                  9               0           1.5+0           1.8+1*
*        2.59807621135+0               0
GRID*                 10               0-2.29813332936+0           1.6+1*
*       -1.92836282906+0               0
GRID*                 11               0 5.20944533001-1           2.1+1*
*        2.95442325904+0               0
GRID*                 12               0          -1.5+0           1.7+1*
*       -2.59807621135+0               0
GRID*                 13               0-2.81907786236+0           1.3+1*
*       -1.02606042998+0               0
GRID*                 14               0 2.29813332936+0           1.1+1*
*       -1.92836282906+0               1
GRID*                 15               0           1.5+0           2.0+1*
*        2.59807621135+0               0
GRID*                 16               0 2.29813332936+0           1.3+1*
*       -1.92836282906+0               0
GRID*                 17               0 5.20944533001-1           1.9+1*
*       -2.95442325904+0               0
GRID*                 18               0 2.29813332936+0           1.9+1*
*        1.92836282906+0               0
GRID*                 19               0          -1.5+0           2.1+1*
*       -2.59807621135+0               0
GRID*                 20               0           1.5+0           1.2+1*
*       -2.59807621135+0               0
$ ... 230 like lines cut
PARAM    STR_CID      -2
$--1---><--2---><--3---><--4---><--5---><--6---><--7---><--8---><--9---><--10-->
$$$$$$$$$$$$$$$$$$$$$$$$$$$$$$$$$$$ Material $$$$$$$$$$$$$$$$$$$$$$$$$$$$$$$$$$$
MAT1*                  1          2.0+11 7.6923076923+10           3.0-1*
*                  0.0+0           0.0+0           0.0+0
$--1---><--2---><--3---><--4---><--5---><--6---><--7---><--8---><--9---><--10-->
CORD2R*                1               0           0.0+0           0.0+0*
*                  0.0+0 6.42787609687-1           0.0+0 7.66044443119-1*
*        7.66044443119-1           0.0+0-6.42787609687-1                *
*
CORD2R*                2               0           0.0+0           0.0+0*
*                  0.0+0-1.73648177667-1           0.0+0 9.84807753012-1*
*        9.84807753012-1           0.0+0 1.73648177667-1                *
*
CORD2R*                3               0           0.0+0           0.0+0*
*                  0.0+0-3.42020143326-1           0.0+0 9.39692620786-1*
*        9.39692620786-1           0.0+0 3.42020143326-1                *
*
CORD2R*                4               0           0.0+0           0.0+0*
*                  0.0+0          -5.0-1           0.0+0 8.66025403784-1*
*        8.66025403784-1           0.0+0           5.0-1                *
*
CORD2R*                5               0           0.0+0           0.0+0*
*                  0.0+0 1.73648177667-1           0.0+0 9.84807753012-1*
*        9.84807753012-1           0.0+0-1.73648177667-1                *
*
CORD2R*                6               0           0.0+0           0.0+0*
*                  0.0+0 3.42020143326-1           0.0+0 9.39692620786-1*
*        9.39692620786-1           0.0+0-3.42020143326-1                *
*
CORD2R*                7               0           0.0+0           0.0+0*
*                  0.0+0-6.42787609687-1           0.0+0 7.66044443119-1*
*        7.66044443119-1           0.0+0 6.42787609687-1                *
*
CORD2R*                8               0           0.0+0           0.0+0*
*                  0.0+0           5.0-1           0.0+0 8.66025403784-1*
*        8.66025403784-1           0.0+0          -5.0-1                *
*
SPC            1      14       2   0.0+0
SPC            1      14       6   0.0+0
SPC            1      24       2   0.0+0
SPC            1      24       4   0.0+0
SPC            1      27       2   0.0+0
SPC            1      27       6   0.0+0
SPC            1      28       2   0.0+0
SPC            1      28       6   0.0+0
SPC            1      37       2   0.0+0
SPC            1      37       4   0.0+0
SPC            1      47       2   0.0+0
SPC            1      47       4   0.0+0
SPC            1      50       2   0.0+0
SPC            1      50       6   0.0+0
SPC            1      56       3   0.0+0
SPC            1      56       1   0.0+0
SPC            1      56       5   0.0+0
SPC            1      81       2   0.0+0
SPC            1      81       6   0.0+0
SPC            1      91       2   0.0+0
$ ... 19 like lines cut
$--1---><--2---><--3---><--4---><--5---><--6---><--7---><--8---><--9---><--10-->
$$$$$$$$$$$$$$$$$$$$$$$$$$$$$$$$$$$ Default $$$$$$$$$$$$$$$$$$$$$$$$$$$$$$$$$$$$
PSHELL         9       1   1.0-1       1               1           0.0+0
CQUAD4*                1               9              99              63*
*                     35              89-1.34263067236+2           0.0+0
CQUAD4*                2               9              16              20*
*                     25              22 1.34263067236+2           0.0+0
CQUAD4*                3               9              33              65*
*                     51              54-1.34263067236+2           0.0+0
CQUAD4*                4               9              46              45*
*                     72              73 1.34263067236+2           0.0+0
CQUAD4*                5               9              12              10*
*                      7              21 1.34263067236+2           0.0+0
CQUAD4*                6               9              17              52*
*                     40              68 1.34263067236+2           0.0+0
CQUAD4*                7               9              89              41*
*                     57              66 1.34263067236+2           0.0+0
CQUAD4*                8               9              97              55*
*                     59              58-1.34263067236+2           0.0+0
CQUAD4*                9               9              85              70*
*                      5               6 1.34263067236+2           0.0+0
CQUAD4*               10               9              54              51*
*                     53              39-1.34263067236+2           0.0+0
CQUAD4*               11               9              13              49*
*                     51              65 1.34263067236+2           0.0+0
CQUAD4*               12               9               5               9*
*                     18              15 1.34263067236+2           0.0+0
CQUAD4*               13               9              21               7*
*                      3              95 1.34263067236+2           0.0+0
CQUAD4*               14               9              39              43*
*                     48              45 1.34263067236+2           0.0+0
CQUAD4*               15               9              87              88*
*                     12              52 1.34263067236+2           0.0+0
CQUAD4*               16               9              66              57*
*                     17              29 1.34263067236+2           0.0+0
CQUAD4*               17               9              99              89*
*                     66               4 1.34263067236+2           0.0+0
CQUAD4*               18               9              89              35*
*                     42              41-1.34263067236+2           0.0+0
CQUAD4*               19               9              56              94*
*                     36              31-1.34263067236+2           0.0+0
CQUAD4*               20               9              95               3*
*                     61              69 1.34263067236+2           0.0+0
$ ... 194 like lines cut
PSHELL        10       1   1.0-1       1               1           0.0+0
CTRIA3*               82              10             100             101*
*                    102 4.52756568482+1           0.0+0
CTRIA3*               83              10             103             102*
*                    104 4.52756568482+1           0.0+0
CTRIA3*               84              10             105             104*
*                    106 4.52756568482+1           0.0+0
CTRIA3*               85              10             107             106*
*                    108 4.52756568482+1           0.0+0
CTRIA3*               86              10             109             108*
*                    110 4.52756568482+1           0.0+0
CTRIA3*               87              10             111             110*
*                    112 4.52756568482+1           0.0+0
CTRIA3*               88              10             113             112*
*                    114 4.52756568482+1           0.0+0
CTRIA3*               89              10             115             114*
*                    116 4.52756568482+1           0.0+0
CTRIA3*               90              10             117             116*
*                    101 4.52756568482+1           0.0+0
CTRIA3*               91              10              75              24*
*                     91-1.34724343152+2           0.0+0
CTRIA3*               92              10              84              91*
*                     28-1.34724343152+2           0.0+0
CTRIA3*               93              10              49              28*
*                     50-1.34724343152+2           0.0+0
CTRIA3*               94              10              53              50*
*                     37-1.34724343152+2           0.0+0
CTRIA3*               95              10              43              37*
*                     47-1.34724343152+2           0.0+0
CTRIA3*               96              10              71              47*
*                     81-1.34724343152+2           0.0+0
CTRIA3*               97              10              74              81*
*                     27-1.34724343152+2           0.0+0
CTRIA3*               98              10              30              27*
*                     14-1.34724343152+2           0.0+0
CTRIA3*               99              10              20              14*
*                     24-1.34724343152+2           0.0+0
PLOAD2         2   1.0+4      25
PLOAD2         2   1.0+4      26
PLOAD2         2   1.0+4      14
PLOAD2         2   1.0+4      30
PLOAD2         2   1.0+4      31
PLOAD2         2   1.0+4      57
PLOAD2         2   1.0+4      71
PLOAD2         2   1.0+4      80
PLOAD2         2   1.0+4      29
PLOAD2         2   1.0+4       4
PLOAD2         2   1.0+4      10
PLOAD2         2   1.0+4      60
PLOAD2         2   1.0+4      40
PLOAD2         2   1.0+4      19
PLOAD2         2   1.0+4      62
PLOAD2         2   1.0+4      22
PLOAD2         2   1.0+4      65
PLOAD2         2   1.0+4      61
PLOAD2         2   1.0+4      72
PLOAD2         2   1.0+4       3
$ ... 115 like lines cut
$--1---><--2---><--3---><--4---><--5---><--6---><--7---><--8---><--9---><--10-->
LOAD           1   1.0+0   1.0+0       2
PARAM,QUAD4TYP,MITC4+
ENDDATA 
