$ Generated by Mecway 33
$-----------------------EXECUTIVE CONTROL SECTION-----------------------
SOL 101
CEND
$-------------------------CASE CONTROL SECTION--------------------------
DISPLACEMENT = ALL
SPC = 1
BEGIN BULK
$---------------------------BULK DATA SECTION---------------------------
GRID           1       0  -5.0-1  -2.0+0   1.5+0       0
GRID           2       0   5.0-1  -2.0+0   1.5+0       0
GRID           3       0   5.0-1   2.0+0   1.5+0       0
GRID           4       0  -5.0-1   2.0+0   1.5+0       0
GRID           5       0  -5.0-1  -2.0+0   2.5+0       0
GRID           6       0   5.0-1  -2.0+0   2.5+0       0
GRID           7       0   5.0-1   2.0+0   2.5+0       0
GRID           8       0  -5.0-1   2.0+0   2.5+0       0
GRID           9       0   5.0-1   2.0+0   5.0-1       0
GRID          10       0   0.0+0  -2.0+0   1.5+0       0
GRID*                 11               0           5.0-1 8.3266726847-17*
*                  1.5+0               0
GRID          12       0   0.0+0   2.0+0   1.5+0       0
GRID*                 13               0          -5.0-1 8.3266726847-17*
*                  1.5+0               0
GRID          14       0  -5.0-1  -2.0+0   2.0+0       0
GRID          15       0   5.0-1  -2.0+0   2.0+0       0
GRID          16       0   5.0-1   2.0+0   2.0+0       0
GRID          17       0  -5.0-1   2.0+0   2.0+0       0
GRID          18       0   0.0+0  -2.0+0   2.5+0       0
GRID*                 19               0           5.0-1 8.3266726847-17*
*                  2.5+0               0
GRID          20       0   0.0+0   2.0+0   2.5+0       0
GRID*                 21               0          -5.0-1 8.3266726847-17*
*                  2.5+0               0
GRID          22       0  -5.0-1   1.0+0   3.5+0       0
GRID          23       0   5.0-1   1.0+0   3.5+0       0
GRID          24       0   5.0-1   2.0+0   3.5+0       0
GRID          25       0  -5.0-1   2.0+0   3.5+0       0
GRID          26       0  -5.0-1   1.0+0   4.5+0       0
GRID          27       0   5.0-1   1.0+0   4.5+0       0
GRID          28       0   5.0-1   2.0+0   4.5+0       0
GRID          29       0  -5.0-1   2.0+0   4.5+0       0
GRID          30       0   5.0-1   2.0+0  -1.0+0       0
GRID*                 31               0 9.37573254108-1 2.67302250862+0*
*       -1.32468923926+0               0
GRID          32       0   2.0+0   2.0+0  -1.0+0       0
GRID*                 33               0 2.43757325411+0 2.67302250862+0*
*       -1.32468923926+0               0
GRID          34       0   3.0+0   2.0+0  -1.0+0       0
GRID*                 35               0 3.43757325411+0 2.67302250862+0*
*       -1.32468923926+0               0
GRID          36       0   4.0+0   2.0+0  -1.0+0       0
GRID*                 37               0 4.43757325411+0 2.67302250862+0*
*       -1.32468923926+0               0
GRID          38       0   5.0-1   2.0+0  -2.0+0       0
GRID*                 39               0 9.37573254108-1 2.67302250862+0*
*       -2.32468923926+0               0
GRID          40       0   2.0+0   2.0+0  -2.0+0       0
GRID*                 41               0 2.43757325411+0 2.67302250862+0*
*       -2.32468923926+0               0
PARAM    STR_CID      -2
$--1---><--2---><--3---><--4---><--5---><--6---><--7---><--8---><--9---><--10-->
$$$$$$$$$$$$$$$$$$$$$$$$$$$$$$$$$$$ Material $$$$$$$$$$$$$$$$$$$$$$$$$$$$$$$$$$$
MAT1           2  2.0+11  1.0+11   0.0+0   1.0+3   0.0+0   0.0+0
$--1---><--2---><--3---><--4---><--5---><--6---><--7---><--8---><--9---><--10-->
$$$$$$$$$$$$$$$$$$$$$$$$$$$$$$$$$$$$ Shell $$$$$$$$$$$$$$$$$$$$$$$$$$$$$$$$$$$$$
MAT1           3  2.0+11  1.0+11   0.0+0   1.0+3   0.0+0   0.0+0
$--1---><--2---><--3---><--4---><--5---><--6---><--7---><--8---><--9---><--10-->
$$$$$$$$$$$$$$$$$$$$$$$$$$$$$$$$$$$$$ Beam $$$$$$$$$$$$$$$$$$$$$$$$$$$$$$$$$$$$$
MAT1           1  2.0+11  1.0+11   0.0+0   1.0+3   0.0+0   0.0+0
$--1---><--2---><--3---><--4---><--5---><--6---><--7---><--8---><--9---><--10-->
SPC            1       9       1   0.0+0
SPC            1       9       2   0.0+0
SPC            1       9       3   0.0+0
SPC            1       9       4   1.2-4
SPC            1       9       5   2.0-4
SPC            1       9       6   0.0+0
SPC            1      35     123   0.0+0
SPC            1      39     123   0.0+0
$--1---><--2---><--3---><--4---><--5---><--6---><--7---><--8---><--9---><--10-->
$$$$$$$$$$$$$$$$$$$$$$$$$$$$$$$$$$$ Default $$$$$$$$$$$$$$$$$$$$$$$$$$$$$$$$$$$$
PSOLID         1       2       0       3               1
CHEXA          1       1       1       2       3       4       5       6+
+              7       8      10      11      12      13      14      15+
+             16      17      18      19      20      21
$--1---><--2---><--3---><--4---><--5---><--6---><--7---><--8---><--9---><--10-->
$$$$$$$$$$$$$$$$$$$$$$$$$$$$$$$$$$ Component $$$$$$$$$$$$$$$$$$$$$$$$$$$$$$$$$$$
PSHELL         2       3   2.0-1       3               3           0.0+0
CQUAD4         2       2      22      23      24      25   0.0+0   0.0+0
CQUAD4         3       2      26      27      28      29   0.0+0   0.0+0
$--1---><--2---><--3---><--4---><--5---><--6---><--7---><--8---><--9---><--10-->
$$$$$$$$$$$$$$$$$$$$$$$$$$$$$$$$$ Component(2) $$$$$$$$$$$$$$$$$$$$$$$$$$$$$$$$$
PBAR*                  3               1           1.0-2 8.33333333333-6*
*        8.33333333333-6 1.40833333333-5           0.0+0
CBAR*                  4               3              30              31*
*       -8.38381781205-1 5.45083469703-1           0.0+0                
CBAR*                  5               3              32              33*
*       -8.38381781205-1 5.45083469703-1           0.0+0                
PROD           4       1   1.0-2
CROD           6       4      34      35
CROD           7       4      36      37
$--1---><--2---><--3---><--4---><--5---><--6---><--7---><--8---><--9---><--10-->
$$$$$$$$$$$$$$$$$$$$$$$$$$$$$$$$$ Component(3) $$$$$$$$$$$$$$$$$$$$$$$$$$$$$$$$$
PBUSH          5       K   2.0+0
CBUSH*                 8               5              38              39*
*        8.38381781205-1-5.45083469703-1           0.0+0                
CBUSH*                 9               5              40              41*
*        8.38381781205-1-5.45083469703-1           0.0+0                
$--1---><--2---><--3---><--4---><--5---><--6---><--7---><--8---><--9---><--10-->
$$$$$$$$$$$$$$$$$$$$$$$$$$$$ node-surface coupling $$$$$$$$$$$$$$$$$$$$$$$$$$$$$
RBE2          10       9     123      24      25       3      12       4+
+             17       8      20       7      16      26      27      28+
+             29      30      32      33      34      36      37      38+
+             40      41
RBE2          11       9     456      24      25      26      27      28+
+             29      30      32      33
$--1---><--2---><--3---><--4---><--5---><--6---><--7---><--8---><--9---><--10-->
ENDDATA 
