$ Generated by Mecway 33
$-----------------------EXECUTIVE CONTROL SECTION-----------------------
SOL 101
CEND
$-------------------------CASE CONTROL SECTION--------------------------
DISPLACEMENT = ALL
STRESS(CORNER) = ALL
SPC = 1
BEGIN BULK
$---------------------------BULK DATA SECTION---------------------------
GRID*                  1               0-8.58711046507-1 7.24711091785-1*
*        1.04809025741+0               0
GRID*                  2               0 4.36529813175-2 1.15813437801+0*
*        9.65495369813-1               0
GRID*                  3               0-1.12373449104-1 2.12650625476+0*
*        1.16020454097+0               0
GRID*                  4               0-1.01473747693+0 1.69308296853+0*
*        1.24279942857+0               0
GRID*                  5               0 6.98323905981-1 2.73432840663-1*
*        2.72616350674+0               0
GRID*                  6               0  1.7078910937+0  3.8251873849-1*
*        2.46451410586+0               0
GRID*                  7               0 1.63033565001+0 1.31055387994+0*
*        2.49840540151+0               0
GRID*                  8               0 5.91334166276-1 1.15618144408+0*
*        2.85789260781+0               0
GRID*                  9               0 3.59263842062+0 8.73660548891-1*
*       -2.00677456971-1               0
GRID*                 10               0  4.1822905402+0 1.17909358389+0*
*       -1.15276492282-1               0
GRID*                 11               0 3.83720712279+0 2.17030066406+0*
*        1.32949137131-1               0
GRID*                 12               0 2.90160783239+0 1.93808614433+0*
*        2.30862725206-1               0
GRID*                 13               0 6.05626106262-1 2.84537386894+0*
*        1.44146823883+0               0
GRID*                 14               0 1.49890494347+0  3.4249150753+0*
*       -1.70307374001+0               0
GRID*                 15               0 3.00790429115+0 4.49143028259+0*
*        9.72097456455-1               0
GRID*                 16               0  3.8225646019+0 3.85106801987+0*
*        8.15795838833-1               0
GRID*                 17               0  1.2232811451+0 4.17897033691+0*
*         1.3843934536+0               0
GRID*                 18               0 4.66230869293+0 3.98121029139-2*
*        -2.8598241806+0               0
GRID*                 19               0 2.92634677887+0 2.29082679749+0*
*       -3.18972635269+0               0
GRID*                 20               0-1.79999816418+0 2.05183625221+0*
*       -1.68355762959-1               0
PARAM    STR_CID      -2
$--1---><--2---><--3---><--4---><--5---><--6---><--7---><--8---><--9---><--10-->
$$$$$$$$$$$$$$$$$$$$$$$$$$$$$$$$$$$ Material $$$$$$$$$$$$$$$$$$$$$$$$$$$$$$$$$$$
MAT1           1  1.23+8  6.15+7   0.0+0   0.0+0   0.0+0   0.0+0
$--1---><--2---><--3---><--4---><--5---><--6---><--7---><--8---><--9---><--10-->
SPC            1      13       1   5.0-2
SPC            1      13       2   1.0-1
SPC            1      13       3   1.5-1
SPC            1      13       4   1.1-2
SPC            1      13       5   2.2-2
SPC            1      13       6   3.3-2
$--1---><--2---><--3---><--4---><--5---><--6---><--7---><--8---><--9---><--10-->
$$$$$$$$$$$$$$$$$$$$$$$$$$$$$$$$$$$ Default $$$$$$$$$$$$$$$$$$$$$$$$$$$$$$$$$$$$
PBAR*                  1               1          3.92-4 6.27722666667-7*
*        4.17306666667-8  5.276654181-10           0.0+0
CBAR*                  1               1               1               4*
*       -9.87267164209-1-1.59070885062-1           0.0+0                
CBAR*                  2               1               4               3*
*       -4.32965324738-1 9.01410576582-1           0.0+0                
CBAR*                  3               1               2               3*
*       -9.87267164209-1-1.59070885062-1           0.0+0                
CBAR*                  4               1               1               2*
*       -4.32965324738-1 9.01410576582-1           0.0+0                
CBAR*                  5               1               5               8*
*       -9.92735137606-1-1.20320183524-1           0.0+0                
CBAR*                  6               1               8               7*
*        -1.4696439685-1 9.89141782587-1           0.0+0                
CBAR*                  7               1               7               6*
*        9.96526252928-1 8.32792124393-2           0.0+0                
CBAR*                  8               1              15              14*
*        5.77166810634-1-8.16626274805-1           0.0+0                
CBAR*                  9               1              14              17*
*       -9.39223318197-1-3.43306799459-1           0.0+0                
CBAR*                 10               1              15              16*
*        6.17983849322-1 7.86190792351-1           0.0+0                
CBAR*                 11               1              11              12*
*        2.40889850956-1-9.70552461079-1           0.0+0                
CBAR*                 12               1              12               9*
*        8.38748115368-1  5.4451960384-1           0.0+0                
CBAR*                 13               1               9              10*
*        -4.5994623979-1 8.87946764453-1           0.0+0                
CBAR*                 14               1               6               5*
*        1.07426844065-1-9.94212991856-1           0.0+0                
CBAR*                 15               1              10              18*
*        9.21542576043-1 3.88277324268-1           0.0+0                
CBAR*                 16               1              16              19*
*         8.6712737758-1-4.98086449374-1           0.0+0                
CBAR*                 17               1               3              20*
*         4.4202374629-2-9.99022597381-1           0.0+0                
$--1---><--2---><--3---><--4---><--5---><--6---><--7---><--8---><--9---><--10-->
$$$$$$$$$$$$$$$$$$$$$$$$$$$$ node-surface coupling $$$$$$$$$$$$$$$$$$$$$$$$$$$$$
RBE2          18       3     123       8       6       5       7
RBE2          19       3     456       8       6       5       7
$--1---><--2---><--3---><--4---><--5---><--6---><--7---><--8---><--9---><--10-->
$$$$$$$$$$$$$$$$$$$$$$$$$$$$ node-surface coupling $$$$$$$$$$$$$$$$$$$$$$$$$$$$$
RBE2          20       7     123      17      16      15      14
RBE2          21       7     456      17      16      15      14
$--1---><--2---><--3---><--4---><--5---><--6---><--7---><--8---><--9---><--10-->
$$$$$$$$$$$$$$$$$$$$$$$$$$$$ node-surface coupling $$$$$$$$$$$$$$$$$$$$$$$$$$$$$
RBE2          22      13     123       4       3       2       1
RBE2          23      13     456       4       3       2       1
$--1---><--2---><--3---><--4---><--5---><--6---><--7---><--8---><--9---><--10-->
$$$$$$$$$$$$$$$$$$$$$$$$$$$$ node-surface coupling $$$$$$$$$$$$$$$$$$$$$$$$$$$$$
RBE2          24       7     123      11      12       9      10
RBE2          25       7     456      11      12       9      10
$--1---><--2---><--3---><--4---><--5---><--6---><--7---><--8---><--9---><--10-->
ENDDATA 
