$ Generated by Mecway 33
$-----------------------EXECUTIVE CONTROL SECTION-----------------------
SOL 103
CEND
$-------------------------CASE CONTROL SECTION--------------------------
METHOD = 1
DISPLACEMENT = ALL
SPC = 1
BEGIN BULK
$---------------------------BULK DATA SECTION---------------------------
GRID           1       0   0.0+0   1.5+0   0.0+0       0
GRID           2       0   0.0+0   0.0+0   0.0+0       0
GRID           3       0   0.0+0   1.0+0   0.0+0       0
GRID           4       0   0.0+0   5.0-1   0.0+0       0
GRID           5       0   0.0+0   7.5-1   0.0+0       0
GRID           6       0   0.0+0   2.5-1   0.0+0       0
GRID           7       0  -1.0+0   0.0+0   0.0+0       0
GRID           8       0  -1.0+0   1.0+0   0.0+0       0
GRID           9       0  -1.0+0   5.0-1   0.0+0       0
GRID          10       0  -1.0+0   7.5-1   0.0+0       0
GRID          11       0  -1.0+0   2.5-1   0.0+0       0
GRID          12       0  -1.0+0   1.5+0   0.0+0       0
PARAM    STR_CID      -2
$--1---><--2---><--3---><--4---><--5---><--6---><--7---><--8---><--9---><--10-->
$$$$$$$$$$$$$$$$$$$$$$$$$$$$$$$$$$$ Material $$$$$$$$$$$$$$$$$$$$$$$$$$$$$$$$$$$
MAT1           1  1.0+10   5.0+9   0.0+0   1.0+3   0.0+0   0.0+0
$--1---><--2---><--3---><--4---><--5---><--6---><--7---><--8---><--9---><--10-->
$$$$$$$$$$$$$$$$$$$$$$$$$$$$$$$$$ Material(2) $$$$$$$$$$$$$$$$$$$$$$$$$$$$$$$$$$
MAT1           2  1.0+13  5.0+12   0.0+0   1.0-1   0.0+0   0.0+0
$--1---><--2---><--3---><--4---><--5---><--6---><--7---><--8---><--9---><--10-->
SPC            1       2       1   0.0+0
SPC            1       2       2   0.0+0
SPC            1       2       3   0.0+0
SPC            1       2       4   0.0+0
SPC            1       2       5   0.0+0
SPC            1       2       6   0.0+0
SPC            1       7       1   0.0+0
SPC            1       7       2   0.0+0
SPC            1       7       3   0.0+0
SPC            1       7       4   0.0+0
SPC            1       7       5   0.0+0
SPC            1       7       6   0.0+0
$--1---><--2---><--3---><--4---><--5---><--6---><--7---><--8---><--9---><--10-->
$$$$$$$$$$$$$$$$$$$$$$$$$$$$$$$$$$$ Default $$$$$$$$$$$$$$$$$$$$$$$$$$$$$$$$$$$$
PBAR*                  1               1           3.0-4           2.5-9*
*                 2.25-8 7.90216049383-9           0.0+0
CBAR           1       1       2       6  -1.0+0   0.0+0   0.0+0        
CBAR           2       1       6       4  -1.0+0   0.0+0   0.0+0        
CBAR           3       1       4       5  -1.0+0   0.0+0   0.0+0        
CBAR           4       1       5       3  -1.0+0   0.0+0   0.0+0        
CBAR           5       1      11       9  -1.0+0   0.0+0   0.0+0        
CBAR           6       1       9      10  -1.0+0   0.0+0   0.0+0        
CBAR           7       1      10       8  -1.0+0   0.0+0   0.0+0        
CBAR           9       1       7      11  -1.0+0   0.0+0   0.0+0        
$--1---><--2---><--3---><--4---><--5---><--6---><--7---><--8---><--9---><--10-->
$$$$$$$$$$$$$$$$$$$$$$$$$$$$$$$$$$ Component $$$$$$$$$$$$$$$$$$$$$$$$$$$$$$$$$$$
PBAR*                  2               2           1.0-4 8.3333333333-10*
*        8.3333333333-10 1.40833333333-9           0.0+0
CBAR           8       2       8      12  -1.0+0   0.0+0   0.0+0        
$--1---><--2---><--3---><--4---><--5---><--6---><--7---><--8---><--9---><--10-->
$$$$$$$$$$$$$$$$$$$$$$$$$$$$ node-surface coupling $$$$$$$$$$$$$$$$$$$$$$$$$$$$$
RBE2          10       1     123       3
RBE2          11       1     456       3
$--1---><--2---><--3---><--4---><--5---><--6---><--7---><--8---><--9---><--10-->
$$$$$$$$$$$$$$$$$$$$$$$$$$$$$$$$$$$$$ mass $$$$$$$$$$$$$$$$$$$$$$$$$$$$$$$$$$$$$
CONM2         12       1       0   1.0-1
CONM2         13      12       0   1.0-1
$--1---><--2---><--3---><--4---><--5---><--6---><--7---><--8---><--9---><--10-->
EIGRL          1                       8       0                    MASS
ENDDATA 
