$ Generated by Mecway 33
$-----------------------EXECUTIVE CONTROL SECTION-----------------------
SOL 105
CEND
$-------------------------CASE CONTROL SECTION--------------------------
DISPLACEMENT = ALL
SPC = 1
SUBCASE 1
LOAD = 1
SUBCASE 2
METHOD = 1
BEGIN BULK
$---------------------------BULK DATA SECTION---------------------------
GRID           1       0   0.0+0   0.0+0   0.0+0       0
GRID           2       0   1.0+0   0.0+0   0.0+0       0
GRID           3       0   1.0+0   1.0-1   0.0+0       0
GRID           4       0   0.0+0   1.0-1   0.0+0       0
GRID           5       0   1.0-1   0.0+0   0.0+0       0
GRID           6       0   1.0-1   1.0-1   0.0+0       0
GRID           7       0   2.0-1   0.0+0   0.0+0       0
GRID           8       0   2.0-1   1.0-1   0.0+0       0
GRID           9       0   3.0-1   0.0+0   0.0+0       0
GRID          10       0   3.0-1   1.0-1   0.0+0       0
GRID          11       0   4.0-1   0.0+0   0.0+0       0
GRID          12       0   4.0-1   1.0-1   0.0+0       0
GRID          13       0   5.0-1   0.0+0   0.0+0       0
GRID          14       0   5.0-1   1.0-1   0.0+0       0
GRID          15       0   6.0-1   0.0+0   0.0+0       0
GRID          16       0   6.0-1   1.0-1   0.0+0       0
GRID          17       0   7.0-1   0.0+0   0.0+0       0
GRID          18       0   7.0-1   1.0-1   0.0+0       0
GRID          19       0   8.0-1   0.0+0   0.0+0       0
GRID          20       0   8.0-1   1.0-1   0.0+0       0
$ ... 43 like lines cut
PARAM    STR_CID      -2
$--1---><--2---><--3---><--4---><--5---><--6---><--7---><--8---><--9---><--10-->
$$$$$$$$$$$$$$$$$$$$$$$$$$$$$$$$$$$ Material $$$$$$$$$$$$$$$$$$$$$$$$$$$$$$$$$$$
MAT1*                  1          1.0+11 3.8461538462+10           3.0-1*
*                  0.0+0           0.0+0           0.0+0
$--1---><--2---><--3---><--4---><--5---><--6---><--7---><--8---><--9---><--10-->
SPC            1       1       1   0.0+0
SPC            1       1       2   0.0+0
SPC            1       1       3   0.0+0
SPC            1       1       4   0.0+0
SPC            1       1       5   0.0+0
SPC            1       1       6   0.0+0
SPC            1       4       1   0.0+0
SPC            1       4       2   0.0+0
SPC            1       4       3   0.0+0
SPC            1       4       4   0.0+0
SPC            1       4       5   0.0+0
SPC            1       4       6   0.0+0
SPC            1      31       1   0.0+0
SPC            1      31       2   0.0+0
SPC            1      31       3   0.0+0
SPC            1      31       4   0.0+0
SPC            1      31       5   0.0+0
SPC            1      31       6   0.0+0
$--1---><--2---><--3---><--4---><--5---><--6---><--7---><--8---><--9---><--10-->
$$$$$$$$$$$$$$$$$$$$$$$$$$$$$$$$$$$ Default $$$$$$$$$$$$$$$$$$$$$$$$$$$$$$$$$$$$
PSHELL         1       1   1.0-3       1               1           0.0+0
CTRIA3         1       1      56      18      55   0.0+0   0.0+0
CTRIA3         2       1      50      55      16   0.0+0   0.0+0
CTRIA3         3       1      17      60      54   0.0+0   0.0+0
CTRIA3         4       1      57      58      60   0.0+0   0.0+0
CTRIA3         5       1      60      20      59   0.0+0   0.0+0
CTRIA3         6       1      54      59      18   0.0+0   0.0+0
CTRIA3         7       1      19      63      58   0.0+0   0.0+0
CTRIA3         8       1      61      26      63   0.0+0   0.0+0
CTRIA3         9       1      63      22      62   0.0+0   0.0+0
CTRIA3        10       1      58      62      20   0.0+0   0.0+0
CTRIA3        11       1      21      27      26   0.0+0   0.0+0
CTRIA3        12       1      23      24      27   0.0+0   0.0+0
CTRIA3        13       1      27       3      25   0.0+0   0.0+0
CTRIA3        14       1      26      25      22   0.0+0   0.0+0
CTRIA3        15       1       1      32      31   0.0+0   0.0+0
CTRIA3        16       1      28      29      32   0.0+0   0.0+0
CTRIA3        17       1      32       6      30   0.0+0   0.0+0
CTRIA3        18       1      31      30       4   0.0+0   0.0+0
CTRIA3        19       1       5      36      29   0.0+0   0.0+0
CTRIA3        20       1      33      34      36   0.0+0   0.0+0
$ ... 60 like lines cut
$--1---><--2---><--3---><--4---><--5---><--6---><--7---><--8---><--9---><--10-->
$$$$$$$$$$$$$$$$$$$$$$$$$$$$$$$$$$$$ force $$$$$$$$$$$$$$$$$$$$$$$$$$$$$$$$$$$$$
FORCE          2      24       0   1.0+0   0.0+0   5.0-1   0.0+0
FORCE          2       3       0   1.0+0   0.0+0   2.5-1   0.0+0
FORCE          2       2       0   1.0+0   0.0+0   2.5-1   0.0+0
$--1---><--2---><--3---><--4---><--5---><--6---><--7---><--8---><--9---><--10-->
EIGRL          1                       1       0           1.0+0    MASS
LOAD           1   1.0+0   1.0+0       2
ENDDATA 
