$ Generated by Mecway 33
$-----------------------EXECUTIVE CONTROL SECTION-----------------------
SOL 105
CEND
$-------------------------CASE CONTROL SECTION--------------------------
DISPLACEMENT = ALL
SPC = 1
SUBCASE 1
LOAD = 1
SUBCASE 2
METHOD = 1
BEGIN BULK
$---------------------------BULK DATA SECTION---------------------------
GRID*                  1               0 1.46446609407-2           0.0+0*
*        3.53553390593-2               0
GRID           2       0   5.0-2   0.0+0   0.0+0       0
GRID           3       0   5.0-2   1.0+0   0.0+0       0
GRID*                  4               0 1.46446609407-2           1.0+0*
*        3.53553390593-2               0
GRID*                  5               0 1.46446609407-2           7.6-1*
*        3.53553390593-2               0
GRID           6       0   5.0-2   7.4-1   0.0+0       0
GRID*                  7               0 1.46446609407-2           8.6-1*
*        3.53553390593-2               0
GRID           8       0   5.0-2   5.4-1   0.0+0       0
GRID*                  9               0 1.46446609407-2           6.0-2*
*        3.53553390593-2               0
GRID          10       0   5.0-2   1.4-1   0.0+0       0
GRID*                 11               0 1.46446609407-2           1.6-1*
*        3.53553390593-2               0
GRID          12       0   5.0-2   9.4-1   0.0+0       0
GRID*                 13               0 1.46446609407-2           2.6-1*
*        3.53553390593-2               0
GRID          14       0   5.0-2   2.4-1   0.0+0       0
GRID*                 15               0 1.46446609407-2           3.6-1*
*        3.53553390593-2               0
GRID          16       0   5.0-2   6.4-1   0.0+0       0
GRID*                 17               0 1.46446609407-2           4.6-1*
*        3.53553390593-2               0
GRID          18       0   5.0-2   3.4-1   0.0+0       0
GRID*                 19               0 1.46446609407-2           5.6-1*
*        3.53553390593-2               0
GRID          20       0   5.0-2   8.4-1   0.0+0       0
GRID*                 21               0 1.46446609407-2           6.6-1*
*        3.53553390593-2               0
GRID          22       0   5.0-2   4.4-1   0.0+0       0
PARAM    STR_CID      -2
$--1---><--2---><--3---><--4---><--5---><--6---><--7---><--8---><--9---><--10-->
$$$$$$$$$$$$$$$$$$$$$$$$$$$$$$$$$$$ Material $$$$$$$$$$$$$$$$$$$$$$$$$$$$$$$$$$$
MAT1*                  1          2.1+11 7.7777777778+10           3.5-1*
*                  0.0+0           0.0+0           0.0+0
$--1---><--2---><--3---><--4---><--5---><--6---><--7---><--8---><--9---><--10-->
SPC            1       1       1   0.0+0
SPC            1       1       2   0.0+0
SPC            1       1       3   0.0+0
SPC            1       1       4   0.0+0
SPC            1       1       5   0.0+0
SPC            1       1       6   0.0+0
SPC            1       2       1   0.0+0
SPC            1       2       2   0.0+0
SPC            1       2       3   0.0+0
SPC            1       2       4   0.0+0
SPC            1       2       5   0.0+0
SPC            1       2       6   0.0+0
$--1---><--2---><--3---><--4---><--5---><--6---><--7---><--8---><--9---><--10-->
$$$$$$$$$$$$$$$$$$$$$$$$$$$$$$$$$$$ Default $$$$$$$$$$$$$$$$$$$$$$$$$$$$$$$$$$$$
PSHELL         1       1   5.0-2       1               1           0.0+0
CTRIA3*                1               1               4              12*
*                      3 6.7469753496-15           0.0+0
CTRIA3*                2               1               9               2*
*                     10 2.2489917832-15           0.0+0
CTRIA3         3       1      11      10      14   0.0+0   0.0+0
CTRIA3*                4               1              13              14*
*                     18 2.2489917832-15           0.0+0
CTRIA3*                5               1              15              18*
*                     22-3.3734876748-15           0.0+0
CTRIA3*                6               1              17              22*
*                      8 2.2489917832-15           0.0+0
CTRIA3*                7               1              19               8*
*                     16 2.2489917832-15           0.0+0
CTRIA3*                8               1              21              16*
*                      6 2.2489917832-15           0.0+0
CTRIA3*                9               1               5               6*
*                     20 2.2489917832-15           0.0+0
CTRIA3*               10               1               7              20*
*                     12 2.2489917832-15           0.0+0
CTRIA3        11       1       4       7      12   0.0+0   0.0+0
CTRIA3        12       1       9       1       2   0.0+0   0.0+0
CTRIA3        13       1      11       9      10   0.0+0   0.0+0
CTRIA3        14       1      13      11      14   0.0+0   0.0+0
CTRIA3        15       1      15      13      18   0.0+0   0.0+0
CTRIA3        16       1      17      15      22   0.0+0   0.0+0
CTRIA3        17       1      19      17       8   0.0+0   0.0+0
CTRIA3        18       1      21      19      16   0.0+0   0.0+0
CTRIA3        19       1       5      21       6   0.0+0   0.0+0
CTRIA3        20       1       7       5      20   0.0+0   0.0+0
$--1---><--2---><--3---><--4---><--5---><--6---><--7---><--8---><--9---><--10-->
$$$$$$$$$$$$$$$$$$$$$$$$$$$$$$$$$$$$ force $$$$$$$$$$$$$$$$$$$$$$$$$$$$$$$$$$$$$
FORCE          2       4       0   1.0+0   0.0+0  -5.0+3   0.0+0
FORCE          2       3       0   1.0+0   0.0+0  -5.0+3   0.0+0
$--1---><--2---><--3---><--4---><--5---><--6---><--7---><--8---><--9---><--10-->
EIGRL          1                       3       0           1.0+1    MASS
LOAD           1   1.0+0   1.0+0       2
ENDDATA 
