$ Generated by Mecway 33
$-----------------------EXECUTIVE CONTROL SECTION-----------------------
SOL 101
CEND
$-------------------------CASE CONTROL SECTION--------------------------
DISPLACEMENT = ALL
SPC = 1
LOAD = 1
BEGIN BULK
$---------------------------BULK DATA SECTION---------------------------
GRID           1       0   0.0+0   0.0+0   0.0+0       0
GRID           2       0   1.0-1   0.0+0   0.0+0       0
GRID           3       0   1.0-1   1.0-1   0.0+0       0
GRID           4       0   0.0+0   1.0-1   0.0+0       0
GRID           5       0   2.0-1   0.0+0   0.0+0       0
GRID           6       0   3.0-1   0.0+0   0.0+0       0
GRID           7       0   3.0-1   1.0-1   0.0+0       0
GRID           8       0   2.0-1   1.0-1   0.0+0       0
GRID           9       0   4.0-1   0.0+0   0.0+0       0
GRID          10       0   5.0-1   0.0+0   0.0+0       0
GRID          11       0   5.0-1   1.0-1   0.0+0       0
GRID          12       0   4.0-1   1.0-1   0.0+0       0
GRID          13       0   6.0-1   0.0+0   0.0+0       0
GRID          14       0   7.0-1   0.0+0   0.0+0       0
GRID          15       0   7.0-1   1.0-1   0.0+0       0
GRID          16       0   6.0-1   1.0-1   0.0+0       0
PARAM    STR_CID      -2
$--1---><--2---><--3---><--4---><--5---><--6---><--7---><--8---><--9---><--10-->
$$$$$$$$$$$$$$$$$$$$$$$$$$$$$$$$$$$ Material $$$$$$$$$$$$$$$$$$$$$$$$$$$$$$$$$$$
MAT8           1  1.0+11  1.0+11   0.0+0  5.0+10  5.0+10  5.0+10   0.0+0+
+          0.0+0   0.0+0   0.0+0
MAT8           2  1.0+10  1.0+10   0.0+0   5.0+9   5.0+9   5.0+9   0.0+0+
+          0.0+0   0.0+0   0.0+0
$--1---><--2---><--3---><--4---><--5---><--6---><--7---><--8---><--9---><--10-->
SPC            1       1       1   0.0+0
SPC            1       1       2   0.0+0
SPC            1       1       3   0.0+0
SPC            1       1       4   0.0+0
SPC            1       1       5   0.0+0
SPC            1       1       6   0.0+0
SPC            1       2       1   0.0+0
SPC            1       2       2   0.0+0
SPC            1       2       3   0.0+0
SPC            1       2       4   0.0+0
SPC            1       2       5   0.0+0
SPC            1       2       6   0.0+0
SPC            1       5       1   0.0+0
SPC            1       5       2   0.0+0
SPC            1       5       3   0.0+0
SPC            1       5       4   0.0+0
SPC            1       5       5   0.0+0
SPC            1       5       6   0.0+0
SPC            1       6       1   0.0+0
SPC            1       6       2   0.0+0
$ ... 28 like lines cut
$--1---><--2---><--3---><--4---><--5---><--6---><--7---><--8---><--9---><--10-->
$$$$$$$$$$$$$$$$$$$$$$$$$$$$$$$$$$$ Default $$$$$$$$$$$$$$$$$$$$$$$$$$$$$$$$$$$$
PCOMP          1                                   0.0+0                +
+              1   1.0-2   0.0+0               2   1.0-2   0.0+0        
CQUAD4         1       1       4       1       2       3   0.0+0   0.0+0
CQUAD4         2       1       5       6       7       8   0.0+0   0.0+0
CQUAD4         3       1      10      11      12       9   0.0+0   0.0+0
CQUAD4         4       1      15      16      13      14   0.0+0   0.0+0
$--1---><--2---><--3---><--4---><--5---><--6---><--7---><--8---><--9---><--10-->
$$$$$$$$$$$$$$$$$$$$$$$$$$$$$$$$$$$$ force $$$$$$$$$$$$$$$$$$$$$$$$$$$$$$$$$$$$$
FORCE*                 2               4               0           1.0+0*
*                  0.0+0           0.0+0       1.38875+2
FORCE*                 2               3               0           1.0+0*
*                  0.0+0           0.0+0       1.38875+2
FORCE*                 2               7               0           1.0+0*
*                  0.0+0           0.0+0       1.38875+2
FORCE*                 2               8               0           1.0+0*
*                  0.0+0           0.0+0       1.38875+2
FORCE*                 2              11               0           1.0+0*
*                  0.0+0           0.0+0       1.38875+2
FORCE*                 2              12               0           1.0+0*
*                  0.0+0           0.0+0       1.38875+2
FORCE*                 2              15               0           1.0+0*
*                  0.0+0           0.0+0       1.38875+2
FORCE*                 2              16               0           1.0+0*
*                  0.0+0           0.0+0       1.38875+2
$--1---><--2---><--3---><--4---><--5---><--6---><--7---><--8---><--9---><--10-->
LOAD           1   1.0+0   1.0+0       2
ENDDATA 
