$ Generated by Mecway 33
$-----------------------EXECUTIVE CONTROL SECTION-----------------------
SOL 105
CEND
$-------------------------CASE CONTROL SECTION--------------------------
DISPLACEMENT = ALL
SPC = 1
SUBCASE 1
TEMPERATURE = 1
SUBCASE 2
METHOD = 1
BEGIN BULK
$---------------------------BULK DATA SECTION---------------------------
GRID           1       0   0.0+0   0.0+0   0.0+0       1
GRID*                  2               0-2.56515107494-2 7.04769465589-2*
*                  0.0+0               0
GRID*                  3               0-3.42020143326-2 9.39692620786-2*
*                  0.0+0               0
GRID*                  4               0-6.84040286651-2 1.87938524157-1*
*                  0.0+0               2
GRID*                  5               0-2.15919522978-3 7.90274501421-2*
*                  0.0+0               0
GRID*                  6               0-8.55050358314-3 2.34923155196-2*
*                  0.0+0               0
GRID*                  7               0-5.13030214989-2 1.40953893118-1*
*                  0.0+0               0
GRID*                  8               0-4.27525179157-2 1.17461577598-1*
*                  0.0+0               0
GRID*                  9               0-1.71010071663-2 4.69846310393-2*
*                  0.0+0               0
GRID*                 10               0-1.92602023961-2 1.26012081181-1*
*                  0.0+0               0
GRID*                 11               0-2.78107059792-2 1.49504396701-1*
*                  0.0+0               0
GRID*                 12               0 2.34923155196-2 8.55050358314-3*
*                  0.0+0               1
GRID*                 13               0-4.49117131455-2  1.9648902774-1*
*                  0.0+0               2
GRID*                 14               0 -5.9853525082-2 1.64446208638-1*
*                  0.0+0               0
GRID*                 15               0-3.63612095623-2 1.72996712221-1*
*                  0.0+0               0
GRID*                 16               0 6.39130835336-3 5.55351346224-2*
*                  0.0+0               0
GRID*                 17               0 1.49418119365-2 3.20428191028-2*
*                  0.0+0               0
GRID*                 18               0-1.07096988129-2 1.02519765662-1*
*                  0.0+0               0
GRID*                 19               0 4.69846310393-2-1.71010071663-2*
*                  0.0+0               0
GRID*                 20               0 4.69846310393-2 5.78989928337-2*
*                  0.0+0               3
GRID*                 21               0 4.69846310393-2 8.28989928337-2*
*                  0.0+0               3
$ ... 66 like lines cut
PARAM   QUAD4TYP   MIN4T
PARAM    STR_CID      -2
$--1---><--2---><--3---><--4---><--5---><--6---><--7---><--8---><--9---><--10-->
$$$$$$$$$$$$$$$$$$$$$$$$$$$$$$$$$$$ Material $$$$$$$$$$$$$$$$$$$$$$$$$$$$$$$$$$$
MAT1           1  5.0+10  2.5+10   0.0+0   0.0+0   6.0-4   3.0+2
$--1---><--2---><--3---><--4---><--5---><--6---><--7---><--8---><--9---><--10-->
CORD2R*                1               0           0.0+0           0.0+0*
*                  0.0+0           0.0+0           0.0+0           1.0+0*
*        9.39692620786-1 3.42020143326-1           0.0+0                *
*
CORD2R*                2               0           0.0+0           0.0+0*
*                  0.0+0           0.0+0           0.0+0           1.0+0*
*        9.39692620786-1 3.42020143326-1           0.0+0                *
*
CORD2R*                3               0           0.0+0           0.0+0*
*                  0.0+0           0.0+0           0.0+0           1.0+0*
*           8.94427191-1  -4.472135955-1           0.0+0                *
*
CORD2R*                4               0           0.0+0           0.0+0*
*                  0.0+0           0.0+0           0.0+0           1.0+0*
*        7.07106781187-1-7.07106781187-1           0.0+0                *
*
CORD2R*                5               0           0.0+0           0.0+0*
*                  0.0+0           0.0+0           0.0+0           1.0+0*
*        7.07106781187-1 7.07106781187-1           0.0+0                *
*
SPC            1       1       3   0.0+0
SPC            1       1       2   0.0+0
SPC            1       4       2   0.0+0
SPC            1       4       1   0.0+0
SPC            1       4       4   0.0+0
SPC            1       4       6   0.0+0
SPC            1      12       3   0.0+0
SPC            1      12       2   0.0+0
SPC            1      13       2   0.0+0
SPC            1      13       4   0.0+0
SPC            1      13       6   0.0+0
SPC            1      19       3   0.0+0
SPC            1      19       2   0.0+0
SPC            1      20       2   0.0+0
SPC            1      21       2   0.0+0
SPC            1      22       2   0.0+0
SPC            1      22       1   0.0+0
SPC            1      22       4   0.0+0
SPC            1      22       6   0.0+0
SPC            1      24       2   0.0+0
$ ... 20 like lines cut
$--1---><--2---><--3---><--4---><--5---><--6---><--7---><--8---><--9---><--10-->
$$$$$$$$$$$$$$$$$$$$$$$$$$$$$$$$$$$ Default $$$$$$$$$$$$$$$$$$$$$$$$$$$$$$$$$$$$
PSHELL         6       1   1.0-3       1               1           0.0+0
CQUAD4         1       6      12      17       6       1   0.0+0   0.0+0
CQUAD4         2       6      16       5       2       9   0.0+0   0.0+0
CQUAD4         3       6       3      18      10       8   0.0+0   0.0+0
CQUAD4         4       6      17      16       9       6   0.0+0   0.0+0
CQUAD4         5       6       7      11      15      14   0.0+0   0.0+0
CQUAD4         6       6       8      10      11       7   0.0+0   0.0+0
CQUAD4         7       6       5      18       3       2   0.0+0   0.0+0
CQUAD4         8       6      14      15      13       4   0.0+0   0.0+0
CQUAD4         9       6      30      35      24      19   0.0+0   0.0+0
CQUAD4        10       6      34      23      20      27   0.0+0   0.0+0
CQUAD4        11       6      21      36      28      26   0.0+0   0.0+0
CQUAD4        12       6      35      34      27      24   0.0+0   0.0+0
CQUAD4        13       6      25      29      33      32   0.0+0   0.0+0
CQUAD4        14       6      26      28      29      25   0.0+0   0.0+0
CQUAD4        15       6      23      36      21      20   0.0+0   0.0+0
CQUAD4        16       6      32      33      31      22   0.0+0   0.0+0
CQUAD4        17       6      48      53      42      37   0.0+0   0.0+0
CQUAD4        18       6      52      41      38      45   0.0+0   0.0+0
CQUAD4        19       6      39      54      46      44   0.0+0   0.0+0
CQUAD4        20       6      53      52      45      42   0.0+0   0.0+0
$ ... 4 like lines cut
$--1---><--2---><--3---><--4---><--5---><--6---><--7---><--8---><--9---><--10-->
$$$$$$$$$$$$$$$$$$$$$$$$$$$$$$$$$ temperature $$$$$$$$$$$$$$$$$$$$$$$$$$$$$$$$$$
TEMP           1       7   4.0+2
TEMP           1      11   4.0+2
TEMP           1      15   4.0+2
TEMP           1      14   4.0+2
TEMP           1      13   4.0+2
TEMP           1       4   4.0+2
TEMP           1       5   4.0+2
TEMP           1      18   4.0+2
TEMP           1       3   4.0+2
TEMP           1       2   4.0+2
TEMP           1      12   4.0+2
TEMP           1      17   4.0+2
TEMP           1       6   4.0+2
TEMP           1       1   4.0+2
TEMP           1      10   4.0+2
TEMP           1       8   4.0+2
TEMP           1      16   4.0+2
TEMP           1       9   4.0+2
TEMP           1      30   4.0+2
TEMP           1      35   4.0+2
$ ... 34 like lines cut
$--1---><--2---><--3---><--4---><--5---><--6---><--7---><--8---><--9---><--10-->
TEMPD          1   3.0+2
$--1---><--2---><--3---><--4---><--5---><--6---><--7---><--8---><--9---><--10-->
EIGRL          1                       3       0           1.0-5    MASS
ENDDATA 
