$ Generated by Mecway 33
$-----------------------EXECUTIVE CONTROL SECTION-----------------------
SOL 101
CEND
$-------------------------CASE CONTROL SECTION--------------------------
DISPLACEMENT = ALL
SPCFORCES = ALL
MPCFORCES = ALL
STRESS(CORNER) = ALL
STRAIN(CORNER) = ALL
SPC = 1
BEGIN BULK
$---------------------------BULK DATA SECTION---------------------------
GRID           1       0   0.0+0   0.0+0   0.0+0       0
GRID           2       0   2.4-1   0.0+0   0.0+0       0
GRID           3       0   2.4-1   1.2-1   0.0+0       0
GRID           4       0   0.0+0   1.2-1   0.0+0       0
GRID           5       0   4.0-2   2.0-2   0.0+0       0
GRID           6       0   1.8-1   3.0-2   0.0+0       0
GRID           7       0   1.6-1   8.0-2   0.0+0       0
GRID           8       0   8.0-2   8.0-2   0.0+0       0
GRID           9       0   2.0-2   1.0-2   0.0+0       0
GRID          10       0   6.0-2   5.0-2   0.0+0       0
GRID          11       0   4.0-2   1.0-1   0.0+0       0
GRID          12       0   0.0+0   6.0-2   0.0+0       0
GRID          13       0   1.1-1   2.5-2   0.0+0       0
GRID          14       0   1.7-1   5.5-2   0.0+0       0
GRID          15       0   1.2-1   8.0-2   0.0+0       0
GRID          16       0   2.1-1   1.5-2   0.0+0       0
GRID          17       0   1.2-1   0.0+0   0.0+0       0
GRID          18       0   2.4-1   6.0-2   0.0+0       0
GRID          19       0   2.0-1   1.0-1   0.0+0       0
GRID          20       0   1.2-1   1.2-1   0.0+0       0
PARAM    STR_CID      -2
$--1---><--2---><--3---><--4---><--5---><--6---><--7---><--8---><--9---><--10-->
$$$$$$$$$$$$$$$$$$$$$$$$$$$$$$$$$$$ Material $$$$$$$$$$$$$$$$$$$$$$$$$$$$$$$$$$$
MAT1           1   1.0+6   4.0+5   2.5-1   0.0+0   0.0+0   0.0+0
$--1---><--2---><--3---><--4---><--5---><--6---><--7---><--8---><--9---><--10-->
SPC            1       1       1   0.0+0
SPC            1       1       2   0.0+0
SPC            1       2       1   2.4-4
SPC            1       2       2   1.2-4
SPC            1       3       1   3.0-4
SPC            1       3       2   2.4-4
SPC            1       4       1   6.0-5
SPC            1       4       2   1.2-4
SPC            1       6       3   0.0+0
SPC            1      10       3   0.0+0
SPC            1      12       1   3.0-5
SPC            1      12       2   6.0-5
SPC            1      15       3   0.0+0
SPC            1      17       1   1.2-4
SPC            1      17       2   6.0-5
SPC            1      18       1   2.7-4
SPC            1      18       2   1.8-4
SPC            1      20       1   1.8-4
SPC            1      20       2   1.8-4
$--1---><--2---><--3---><--4---><--5---><--6---><--7---><--8---><--9---><--10-->
$$$$$$$$$$$$$$$$$$$$$$$$$$$$$$$$$$$ Default $$$$$$$$$$$$$$$$$$$$$$$$$$$$$$$$$$$$
PSHELL         1       1   1.0-3       1               1           0.0+0
CQUAD8         1       1       1       5       8       4       9      10+
+             11      12                                       2   0.0+0
CORD2R         2       0   0.0+0   0.0+0   0.0+0   0.0+0   1.0+0   0.0+0+
+          1.0+0   0.0+0   0.0+0
CQUAD8         2       1       8       5       6       7      10      13+
+             14      15                                       3   0.0+0
CORD2R         3       0   0.0+0   0.0+0   0.0+0   0.0+0   1.0+0   0.0+0+
+          1.0+0   0.0+0   0.0+0
CQUAD8         3       1       2       6       5       1      16      13+
+              9      17                                       4   0.0+0
CORD2R         4       0   0.0+0   0.0+0   0.0+0   0.0+0   1.0+0   0.0+0+
+          1.0+0   0.0+0   0.0+0
CQUAD8         4       1       2       3       7       6      18      19+
+             14      16                                       5   0.0+0
CORD2R         5       0   0.0+0   0.0+0   0.0+0   0.0+0   1.0+0   0.0+0+
+          1.0+0   0.0+0   0.0+0
CQUAD8         5       1       8       7       3       4      15      19+
+             20      11                                       6   0.0+0
CORD2R         6       0   0.0+0   0.0+0   0.0+0   0.0+0   1.0+0   0.0+0+
+          1.0+0   0.0+0   0.0+0
$--1---><--2---><--3---><--4---><--5---><--6---><--7---><--8---><--9---><--10-->
ENDDATA 
