$ Generated by Mecway 33
$-----------------------EXECUTIVE CONTROL SECTION-----------------------
SOL 101
CEND
$-------------------------CASE CONTROL SECTION--------------------------
DISPLACEMENT = ALL
STRESS(CORNER) = ALL
FORCE(CORNER) = ALL
SPC = 1
BEGIN BULK
$---------------------------BULK DATA SECTION---------------------------
GRID           1       0   2.4-1   6.0-2   4.0-1       0
GRID           2       0   1.1-1   2.5-2   4.0-1       0
GRID           3       0   1.7-1   5.5-2   4.0-1       0
GRID           4       0   1.2-1   8.0-2   4.0-1       0
GRID           5       0   2.0-1   1.0-1   4.0-1       0
GRID           6       0   2.1-1   1.5-2   4.0-1       0
GRID           7       0   1.2-1   0.0+0   4.0-1       0
GRID           8       0   1.2-1   1.2-1   4.0-1       0
GRID           9       0   0.0+0   0.0+0   4.0-1       0
GRID          10       0   2.4-1   0.0+0   4.0-1       0
GRID          11       0   2.4-1   1.2-1   4.0-1       0
GRID          12       0   0.0+0   1.2-1   4.0-1       0
GRID          13       0   4.0-2   2.0-2   4.0-1       0
GRID          14       0   1.8-1   3.0-2   4.0-1       0
GRID          15       0   1.6-1   8.0-2   4.0-1       0
GRID          16       0   8.0-2   8.0-2   4.0-1       0
GRID          17       0   2.0-2   1.0-2   4.0-1       0
GRID          18       0   6.0-2   5.0-2   4.0-1       0
GRID          19       0   4.0-2   1.0-1   4.0-1       0
GRID          20       0   0.0+0   6.0-2   4.0-1       0
PARAM    STR_CID      -2
$--1---><--2---><--3---><--4---><--5---><--6---><--7---><--8---><--9---><--10-->
$$$$$$$$$$$$$$$$$$$$$$$$$$$$$$$$$$$ Material $$$$$$$$$$$$$$$$$$$$$$$$$$$$$$$$$$$
MAT1           1   1.0+6   4.0+5   2.5-1   0.0+0   0.0+0   0.0+0
$--1---><--2---><--3---><--4---><--5---><--6---><--7---><--8---><--9---><--10-->
SPC            1       1       3  3.78-5
SPC            1       1       2   0.0+0
SPC            1       1       4   1.8-4
SPC            1       1       5  -2.7-4
SPC            1       7       3   7.2-6
SPC            1       7       4   6.0-5
SPC            1       7       5  -1.2-4
SPC            1       8       3  2.16-5
SPC            1       8       4   1.8-4
SPC            1       8       5  -1.8-4
SPC            1       9       3   0.0+0
SPC            1       9       4   0.0+0
SPC            1       9       5   0.0+0
SPC            1      10       3  2.88-5
SPC            1      10       4   1.2-4
SPC            1      10       5  -2.4-4
SPC            1      11       3  5.04-5
SPC            1      11       4   2.4-4
SPC            1      11       5  -3.0-4
SPC            1      12       3   7.2-6
$ ... 7 like lines cut
$--1---><--2---><--3---><--4---><--5---><--6---><--7---><--8---><--9---><--10-->
$$$$$$$$$$$$$$$$$$$$$$$$$$$$$$$$$$$ Default $$$$$$$$$$$$$$$$$$$$$$$$$$$$$$$$$$$$
PSHELL         1       1   1.0-3       1               1           0.0+0
CQUAD8         1       1      12      16      15      11      19       4+
+              5       8                                       2   0.0+0
CORD2R         2       0   0.0+0   0.0+0   0.0+0   0.0+0   1.0+0   0.0+0+
+          1.0+0   0.0+0   0.0+0
CQUAD8         2       1      13       9      10      14      17       7+
+              6       2                                       3   0.0+0
CORD2R         3       0   0.0+0   0.0+0   0.0+0   0.0+0   1.0+0   0.0+0+
+          1.0+0   0.0+0   0.0+0
CQUAD8         3       1      12       9      13      16      20      17+
+             18      19                                       4   0.0+0
CORD2R         4       0   0.0+0   0.0+0   0.0+0   0.0+0   1.0+0   0.0+0+
+          1.0+0   0.0+0   0.0+0
CQUAD8         4       1      16      13      14      15      18       2+
+              3       4                                       5   0.0+0
CORD2R         5       0   0.0+0   0.0+0   0.0+0   0.0+0   1.0+0   0.0+0+
+          1.0+0   0.0+0   0.0+0
CQUAD8         5       1      15      14      10      11       3       6+
+              1       5                                       6   0.0+0
CORD2R         6       0   0.0+0   0.0+0   0.0+0   0.0+0   1.0+0   0.0+0+
+          1.0+0   0.0+0   0.0+0
$--1---><--2---><--3---><--4---><--5---><--6---><--7---><--8---><--9---><--10-->
ENDDATA 
