$ Generated by Mecway 33
$-----------------------EXECUTIVE CONTROL SECTION-----------------------
SOL 101
CEND
$-------------------------CASE CONTROL SECTION--------------------------
DISPLACEMENT = ALL
SPCFORCES = ALL
MPCFORCES = ALL
STRESS(CORNER) = ALL
SPC = 1
LOAD = 1
BEGIN BULK
$---------------------------BULK DATA SECTION---------------------------
GRID           1       0   0.0+0   0.0+0   0.0+0       0
GRID*                  2               0 9.33218836784-1-3.81607085466-1*
*                  0.0+0               0
GRID*                  3               0 1.00000011921+0 1.68126308918+0*
*                  0.0+0               0
GRID*                  4               0-1.52642637491-1 1.30919611454+0*
*                  0.0+0               0
GRID           5       0   2.0+0   0.0+0   0.0+0       0
GRID           6       0   3.0+0   0.0+0   0.0+0       0
GRID           7       0   3.0+0   1.5+0   0.0+0       0
GRID           8       0   2.0+0   1.5+0   0.0+0       0
GRID*                  9               0  5.0201100111-1-1.28850460052-1*
*                  0.0+0               0
GRID*                 10               0 9.66609477997-1 6.49828001857-1*
*                  0.0+0               0
GRID*                 11               0 4.27408605814-1 1.46166098118+0*
*                  0.0+0               0
GRID*                 12               0-7.63213187456-2  6.5459805727-1*
*                  0.0+0               0
GRID*                 13               0  5.5134922266-1   7.053155303-1*
*                  0.0+0               0
GRID*                 14               0 2.44973629713-1 7.39634275436-1*
*                  0.0+0               0
GRID*                 15               0 5.54651141167-1 1.11892175674+0*
*                  0.0+0               0
GRID*                 16               0 1.35518051684-1  1.4022128582+0*
*                  0.0+0               0
GRID*                 17               0-1.14481978118-1 9.81897085905-1*
*                  0.0+0               0
GRID          18       0   3.0+0   7.5-1   0.0+0       0
GRID          19       0   2.5+0   1.5+0   0.0+0       0
GRID          20       0   2.0+0   7.5-1   0.0+0       0
GRID          21       0   2.5+0   0.0+0   0.0+0       0
GRID*                 22               0 2.51005500555-1-6.44252300262-2*
*                  0.0+0               0
GRID*                 23               0 5.86357653141-1 2.50934123993-1*
*                  0.0+0               0
GRID*                 24               0-3.81606593728-2 3.27299028635-1*
*                  0.0+0               0
GRID*                 25               0 7.26939499378-1-1.77523761988-1*
*                  0.0+0               0
GRID*                 26               0 8.97696435452-1 2.68384724855-1*
*                  0.0+0               0
GRID*                 27               0 7.73898839951-1 6.25354111195-1*
*                  0.0+0               0
GRID*                 28               0 1.06536138058+0 1.15062618256+0*
*                  0.0+0               0
GRID*                 29               0 6.96920096874-1 1.63673436642+0*
*                  0.0+0               0
PARAM    STR_CID      -2
$--1---><--2---><--3---><--4---><--5---><--6---><--7---><--8---><--9---><--10-->
$$$$$$$$$$$$$$$$$$$$$$$$$$$$$$$$$$$ Material $$$$$$$$$$$$$$$$$$$$$$$$$$$$$$$$$$$
MAT1*                  1          2.0+11 7.1428571429+10           4.0-1*
*                  0.0+0           0.0+0           0.0+0
$--1---><--2---><--3---><--4---><--5---><--6---><--7---><--8---><--9---><--10-->
SPC            1       1       1   0.0+0
SPC            1       1       2   0.0+0
SPC            1       1       3   0.0+0
SPC*                   1               1               4 8.72664625997-2*
*       
SPC            1       2       2   0.0+0
SPC            1       2       3   0.0+0
SPC*                   1               2               4 8.72664625997-2*
*       
SPC            1       5       1   0.0+0
SPC            1       5       2   0.0+0
SPC            1       5       3   0.0+0
SPC*                   1               5               4 8.72664625997-2*
*       
SPC            1       6       2   0.0+0
SPC            1       6       3   0.0+0
SPC*                   1               6               4 8.72664625997-2*
*       
SPC*                   1               9               4 8.72664625997-2*
*       
SPC*                   1              21               4 8.72664625997-2*
*       
SPC*                   1              22               4 8.72664625997-2*
*       
SPC*                   1              25               4 8.72664625997-2*
*       
$--1---><--2---><--3---><--4---><--5---><--6---><--7---><--8---><--9---><--10-->
$$$$$$$$$$$$$$$$$$$$$$$$$$$$$$$$$$$ Default $$$$$$$$$$$$$$$$$$$$$$$$$$$$$$$$$$$$
PSHELL         1       1   1.0-1       1               1           0.0+0
CQUAD8         1       1      12      13      11       4      14      15+
+             16      17                                       2   0.0+0
CORD2R*                2               0           0.0+0           0.0+0*
*                  0.0+0-8.05401989612-2 9.96751361349-1           0.0+0*
*        9.96751361349-1 8.05401989612-2           0.0+0                *
*
CQUAD8         2       1       6       7       8       5      18      19+
+             20      21                                       3   0.0+0
CORD2R         3       0   0.0+0   0.0+0   0.0+0  -1.0+0   0.0+0   0.0+0+
+          0.0+0   1.0+0   0.0+0
CQUAD8         3       1       1       9      13      12      22      23+
+             14      24                                       4   0.0+0
CORD2R*                4               0           0.0+0           0.0+0*
*                  0.0+0 2.48610137162-1  9.6860363395-1           0.0+0*
*         9.6860363395-1-2.48610137162-1           0.0+0                *
*
CQUAD8         4       1       9       2      10      13      25      26+
+             27      23                                       5   0.0+0
CORD2R*                5               0           0.0+0           0.0+0*
*                  0.0+0 5.05689150764-1 8.62715760143-1           0.0+0*
*        8.62715760143-1-5.05689150764-1           0.0+0                *
*
CQUAD8         5       1      13      10       3      11      27      28+
+             29      15                                       6   0.0+0
CORD2R*                6               0           0.0+0           0.0+0*
*                  0.0+0 1.32443955597-1 9.91190495629-1           0.0+0*
*        9.91190495629-1-1.32443955597-1           0.0+0                *
*
$--1---><--2---><--3---><--4---><--5---><--6---><--7---><--8---><--9---><--10-->
$$$$$$$$$$$$$$$$$$$$$$$$$$$$$$$$$$$$ moment $$$$$$$$$$$$$$$$$$$$$$$$$$$$$$$$$$$$
MOMENT         2       4       0   1.0+0   1.1+0   0.0+0   0.0+0
$--1---><--2---><--3---><--4---><--5---><--6---><--7---><--8---><--9---><--10-->
$$$$$$$$$$$$$$$$$$$$$$$$$$$$$$$$$$$$ moment $$$$$$$$$$$$$$$$$$$$$$$$$$$$$$$$$$$$
MOMENT         2       3       0   1.0+0   1.1+0   0.0+0   0.0+0
$--1---><--2---><--3---><--4---><--5---><--6---><--7---><--8---><--9---><--10-->
$$$$$$$$$$$$$$$$$$$$$$$$$$$$$$$$$$$$ force $$$$$$$$$$$$$$$$$$$$$$$$$$$$$$$$$$$$$
FORCE*                 2               7               0           1.0+0*
*                  0.0+0           0.0+0 2.44444444444-1
FORCE*                 2              19               0           1.0+0*
*                  0.0+0           0.0+0 9.77777777778-1
FORCE*                 2               8               0           1.0+0*
*                  0.0+0           0.0+0 2.44444444444-1
$--1---><--2---><--3---><--4---><--5---><--6---><--7---><--8---><--9---><--10-->
LOAD           1   1.0+0   1.0+0       2
ENDDATA 
