$ Generated by Mecway 33
$-----------------------EXECUTIVE CONTROL SECTION-----------------------
SOL 101
CEND
$-------------------------CASE CONTROL SECTION--------------------------
DISPLACEMENT = ALL
SPCFORCES = ALL
MPCFORCES = ALL
STRESS(CORNER) = ALL
SPC = 1
LOAD = 1
BEGIN BULK
$---------------------------BULK DATA SECTION---------------------------
GRID*                  1               0 1.00332474709+0 8.43409538269-1*
*       -7.09372878075-1               0
GRID*                  2               0  1.9884595871+0 5.09418606758-1*
*       -2.64609664679-1               0
GRID*                  3               0  1.9884595871+0 1.50941860676+0*
*       -2.64609664679-1               0
GRID*                  4               0 1.00861418247+0 1.45908355713+0*
*       -2.47653096914-1               0
GRID           5       0   0.0+0   0.0+0   0.0+0       0
GRID           6       0   0.0+0   1.0+0   0.0+0       1
GRID*                  7               0 2.07090449333+0 1.30699515343+0*
*       -1.39908707142+0               0
GRID*                  8               0 2.56778120995+0 1.10144233704+0*
*        -1.2700291872+0               0
GRID*                  9               0  1.4793022871+0 1.56428301334+0*
*       -7.19708859921-1               0
GRID*                 10               0 1.53482270241+0 7.45843589306-1*
*         -5.588773489-1               0
GRID*                 11               0  1.9884595871+0 1.00941860676+0*
*       -2.64609664679-1               0
GRID*                 12               0 1.51613485813+0 1.37341105938+0*
*       -2.99641609192-1               0
GRID*                 13               0  9.9045419693-1 1.19960510731+0*
*       -5.70141613483-1               0
GRID*                 14               0 3.92677813768-1  5.7755959034-1*
*       -4.09796953201-1               0
GRID*                 15               0 4.87919509411-1 1.39231133461+0*
*       -1.65260449052-1               0
GRID          16       0   0.0+0   5.0-1   0.0+0       0
GRID*                 17               0 2.31934285164+0 1.20421874523+0*
*       -1.33455812931+0               0
GRID*                 18               0 2.39547276497+0 1.27753710747+0*
*       -7.00168609619-1               0
GRID*                 19               0 1.78200566769+0 1.53486931324+0*
*       -5.06245553494-1               0
GRID*                 20               0 1.90368032455+0 1.40215861797+0*
*       -9.72977161407-1               0
PARAM    STR_CID      -2
$--1---><--2---><--3---><--4---><--5---><--6---><--7---><--8---><--9---><--10-->
$$$$$$$$$$$$$$$$$$$$$$$$$$$$$$$$$$$ Material $$$$$$$$$$$$$$$$$$$$$$$$$$$$$$$$$$$
MAT1*                  1          2.0+11 7.1428571429+10           4.0-1*
*                  0.0+0           0.0+0           0.0+0
$--1---><--2---><--3---><--4---><--5---><--6---><--7---><--8---><--9---><--10-->
CORD2R*                1               0           0.0+0           0.0+0*
*                  0.0+0-7.07106781187-1           0.0+0 7.07106781187-1*
*        7.07106781187-1           0.0+0 7.07106781187-1                *
*
SPC            1       1       4   0.0+0
SPC            1       1       5   0.0+0
SPC            1       1       6   0.0+0
SPC            1       6       1   1.0-2
SPC            1       7       3   0.0+0
SPC            1       8       3   1.0-2
SPC            1       2     123   0.0+0
$--1---><--2---><--3---><--4---><--5---><--6---><--7---><--8---><--9---><--10-->
$$$$$$$$$$$$$$$$$$$$$$$$$$$$$$$$$$$ Default $$$$$$$$$$$$$$$$$$$$$$$$$$$$$$$$$$$$
PSHELL         2       1   1.0-2       1               1           0.0+0
CQUAD8         1       2       1       2       3       4      10      11+
+             12      13                                       3   0.0+0
CORD2R*                3               0           0.0+0           0.0+0*
*                  0.0+0 3.21079736368-1 9.47052164822-1           0.0+0*
*        8.70793761058-1-2.95225798132-1 3.93141137277-1                *
*
CQUAD8         2       2       5       1       4       6      14      13+
+             15      16                                       4   0.0+0
CORD2R*                4               0           0.0+0           0.0+0*
*                  0.0+0-6.43467925091-1 7.65473075541-1           0.0+0*
*        6.73204029336-1 5.65905207853-1-4.75970199289-1                *
*
CQUAD8         3       2       7       8       3       9      17      18+
+             19      20                                       5   0.0+0
CORD2R*                5               0           0.0+0           0.0+0*
*                  0.0+0 3.82270268005-1 9.24050562577-1           0.0+0*
*        8.98532735922-1-3.71713804074-1 2.33383312037-1                *
*
$--1---><--2---><--3---><--4---><--5---><--6---><--7---><--8---><--9---><--10-->
$$$$$$$$$$$$$$$$$$$$$$$$$$$$$$$$$$$$ force $$$$$$$$$$$$$$$$$$$$$$$$$$$$$$$$$$$$$
FORCE*                 2               4               0           1.0+0*
*        1.58817190812+0 3.17634381624+0 4.76451572435+0
MOMENT*                2               4               0           1.0+0*
*        1.35644526939-5 7.01837933126-7-4.98937618673-6
FORCE*                 2              15               0           1.0+0*
*        3.53723189922+0 7.07446379845+0 1.06116956977+1
MOMENT*                2              15               0           1.0+0*
*        5.96785972061-5  5.0918015542-6-2.32874001048-5
FORCE*                 2               6               0           1.0+0*
*        1.11663232531+0 2.23326465062+0 3.34989697593+0
MOMENT*                2               6               0           1.0+0*
*        3.22960670311-6 2.03528410005-6 -2.4333916344-6
FORCE*                 2               3               0           1.0+0*
*        7.27037530864-1 1.45407506173+0 2.18111259259+0
MOMENT*                2               3               0           1.0+0*
*        2.32180695988-6-6.27610356938-7 -3.5552874867-7
FORCE*                 2              12               0           1.0+0*
*        3.03092633648+0 6.06185267297+0 9.09277900945+0
MOMENT*                2              12               0           1.0+0*
*       -1.58726021806-5 3.60865708387-6 2.88509600429-6
$--1---><--2---><--3---><--4---><--5---><--6---><--7---><--8---><--9---><--10-->
LOAD           1   1.0+0   1.0+0       2
ENDDATA 
