$ Generated by Mecway 33
$-----------------------EXECUTIVE CONTROL SECTION-----------------------
SOL 101
CEND
$-------------------------CASE CONTROL SECTION--------------------------
DISPLACEMENT = ALL
STRESS(CORNER) = ALL
SPC = 1
LOAD = 1
BEGIN BULK
$---------------------------BULK DATA SECTION---------------------------
GRID           1       0   0.0+0   0.0+0   0.0+0       0
GRID           2       0   0.0+0   2.5+5   0.0+0       0
GRID           3       0   7.5+5   5.0+5   0.0+0       0
GRID           4       0   7.5+5   2.5+5   0.0+0       0
GRID           5       0   5.0+5   0.0+0   0.0+0       0
GRID           6       0   7.5+5   0.0+0   0.0+0       0
GRID*                  7               0 2.09970981814+5 3.06511647068+5*
*                  0.0+0               0
GRID           8       0   0.0+0   5.0+5   0.0+0       0
GRID*                  9               0 5.91831514612+5 4.81162976939+5*
*                  0.0+0               0
GRID*                 10               0 3.30058217514+5 5.80058200285+5*
*                  0.0+0               0
GRID          11       0   5.0+5   7.5+5   0.0+0       0
GRID          12       0   7.5+5   7.5+5   0.0+0       0
GRID          13       0   0.0+0   7.5+5   0.0+0       0
GRID          14       0   2.5+5   7.5+5   0.0+0       0
GRID          15       0   2.5+5   0.0+0   0.0+0       0
GRID*                 16               0 5.02354698256+5  1.9584306574+5*
*                  0.0+0               0
GRID*                 17               0 6.70915757306+5  4.9058148847+5*
*                  0.0+0               0
GRID          18       0   7.5+5  6.25+5   0.0+0       0
GRID          19       0  6.25+5   7.5+5   0.0+0       0
GRID*                 20               0 5.45915757306+5  6.1558148847+5*
*                  0.0+0               0
GRID*                 21               0 1.04985490907+5 2.78255823534+5*
*                  0.0+0               0
GRID*                 22               0 2.70014599664+5 4.43284923676+5*
*                  0.0+0               0
GRID*                 23               0 1.65029108757+5 5.40029100142+5*
*                  0.0+0               0
GRID          24       0   0.0+0  3.75+5   0.0+0       0
GRID          25       0  6.25+5   0.0+0   0.0+0       0
GRID          26       0   7.5+5  1.25+5   0.0+0       0
GRID*                 27               0 6.26177349128+5  2.2292153287+5*
*                  0.0+0               0
GRID*                 28               0 5.01177349128+5 9.79215328698+4*
*                  0.0+0               0
GRID          29       0  3.75+5   0.0+0   0.0+0       0
GRID*                 30               0 3.56162840035+5 2.51177356404+5*
*                  0.0+0               0
GRID*                 31               0 2.29985490907+5 1.53255823534+5*
*                  0.0+0               0
GRID*                 32               0 2.90029108757+5 6.65029100142+5*
*                  0.0+0               0
GRID          33       0  1.25+5   7.5+5   0.0+0       0
GRID          34       0   0.0+0  6.25+5   0.0+0       0
GRID*                 35               0 4.60944866063+5 5.30610588612+5*
*                  0.0+0               0
GRID          36       0  3.75+5   7.5+5   0.0+0       0
GRID*                 37               0 5.47093106434+5 3.38503021339+5*
*                  0.0+0               0
GRID          38       0   7.5+5  3.75+5   0.0+0       0
GRID          39       0  1.25+5   0.0+0   0.0+0       0
GRID          40       0   0.0+0  1.25+5   0.0+0       0
PARAM    STR_CID      -2
$--1---><--2---><--3---><--4---><--5---><--6---><--7---><--8---><--9---><--10-->
$$$$$$$$$$$$$$$$$$$$$$$$$$$$$$$$$$$ Material $$$$$$$$$$$$$$$$$$$$$$$$$$$$$$$$$$$
MAT1           1   7.0+0   2.5+0   4.0-1   0.0+0   0.0+0   0.0+0
$--1---><--2---><--3---><--4---><--5---><--6---><--7---><--8---><--9---><--10-->
SPC            1       1       1   0.0+0
SPC            1       1       5   0.0+0
SPC            1       1       6   0.0+0
SPC            1       2       1   0.0+0
SPC            1       2       5   0.0+0
SPC            1       2       6   0.0+0
SPC            1       8       1   0.0+0
SPC            1       8       5   0.0+0
SPC            1       8       6   0.0+0
SPC            1      13       1   0.0+0
SPC            1      13       5   0.0+0
SPC            1      13       6   0.0+0
SPC            1      15       2   0.0+0
SPC            1      24       1   0.0+0
SPC            1      24       5   0.0+0
SPC            1      24       6   0.0+0
SPC            1      34       1   0.0+0
SPC            1      34       5   0.0+0
SPC            1      34       6   0.0+0
SPC            1      40       1   0.0+0
SPC            1      40       5   0.0+0
SPC            1      40       6   0.0+0
$--1---><--2---><--3---><--4---><--5---><--6---><--7---><--8---><--9---><--10-->
$$$$$$$$$$$$$$$$$$$$$$$$$$$$$$$$$$$ Default $$$$$$$$$$$$$$$$$$$$$$$$$$$$$$$$$$$$
PSHELL         1       1   1.0+4       1               1           0.0+0
CQUAD8         1       1       9       3      12      11      17      18+
+             19      20                                       2   0.0+0
CORD2R         2       0   0.0+0   0.0+0   0.0+0   0.0+0   1.0+0   0.0+0+
+          2.0+0   0.0+0   0.0+0
CQUAD8         2       1       2       7      10       8      21      22+
+             23      24                                       3   0.0+0
CORD2R         3       0   0.0+0   0.0+0   0.0+0   0.0+0   1.0+0   0.0+0+
+          2.0+0   0.0+0   0.0+0
CQUAD8         3       1       5       6       4      16      25      26+
+             27      28                                       4   0.0+0
CORD2R         4       0   0.0+0   0.0+0   0.0+0   0.0+0   1.0+0   0.0+0+
+          2.0+0   0.0+0   0.0+0
CQUAD8         4       1      15       5      16       7      29      28+
+             30      31                                       5   0.0+0
CORD2R         5       0   0.0+0   0.0+0   0.0+0   0.0+0   1.0+0   0.0+0+
+          2.0+0   0.0+0   0.0+0
CQUAD8         5       1       8      10      14      13      23      32+
+             33      34                                       6   0.0+0
CORD2R         6       0   0.0+0   0.0+0   0.0+0   0.0+0   1.0+0   0.0+0+
+          2.0+0   0.0+0   0.0+0
CQUAD8         6       1      10       9      11      14      35      20+
+             36      32                                       7   0.0+0
CORD2R         7       0   0.0+0   0.0+0   0.0+0   0.0+0   1.0+0   0.0+0+
+          2.0+0   0.0+0   0.0+0
CQUAD8         7       1       7      16       9      10      30      37+
+             35      22                                       8   0.0+0
CORD2R         8       0   0.0+0   0.0+0   0.0+0   0.0+0   1.0+0   0.0+0+
+          2.0+0   0.0+0   0.0+0
CQUAD8         8       1      16       4       3       9      27      38+
+             17      37                                       9   0.0+0
CORD2R         9       0   0.0+0   0.0+0   0.0+0   0.0+0   1.0+0   0.0+0+
+          2.0+0   0.0+0   0.0+0
CQUAD8         9       1       1      15       7       2      39      31+
+             21      40                                      10   0.0+0
CORD2R        10       0   0.0+0   0.0+0   0.0+0   0.0+0   1.0+0   0.0+0+
+          2.0+0   0.0+0   0.0+0
$--1---><--2---><--3---><--4---><--5---><--6---><--7---><--8---><--9---><--10-->
$$$$$$$$$$$$$$$$$$$$$$$$$$$$$$$$$$$ pressure $$$$$$$$$$$$$$$$$$$$$$$$$$$$$$$$$$$
FORCE*                 2               6               0           1.0+0*
*        1.66666666667+7           0.0+0           0.0+0
FORCE*                 2              26               0           1.0+0*
*        6.66666666667+7           0.0+0           0.0+0
FORCE*                 2               4               0           1.0+0*
*        3.33333333333+7           0.0+0           0.0+0
FORCE*                 2              38               0           1.0+0*
*        6.66666666667+7           0.0+0           0.0+0
FORCE*                 2               3               0           1.0+0*
*        3.33333333333+7           0.0+0           0.0+0
FORCE*                 2              18               0           1.0+0*
*        6.66666666667+7           0.0+0           0.0+0
FORCE*                 2              12               0           1.0+0*
*        1.66666666667+7           0.0+0           0.0+0
$--1---><--2---><--3---><--4---><--5---><--6---><--7---><--8---><--9---><--10-->
LOAD           1   1.0+0   1.0+0       2
ENDDATA 
