$ Generated by Mecway 33
$-----------------------EXECUTIVE CONTROL SECTION-----------------------
SOL 101
CEND
$-------------------------CASE CONTROL SECTION--------------------------
DISPLACEMENT = ALL
SPCFORCES = ALL
MPCFORCES = ALL
STRESS(CORNER) = ALL
FORCE(CORNER) = ALL
SPC = 1
LOAD = 1
BEGIN BULK
$---------------------------BULK DATA SECTION---------------------------
GRID           1       0   0.0+0   0.0+0   0.0+0       0
GRID           2       0   1.0+0   0.0+0   0.0+0       0
GRID           3       0   1.0+0   1.7+0   0.0+0       0
GRID           4       0   0.0+0   1.7+0   0.0+0       0
GRID           5       0   2.0+0   0.0+0   0.0+0       0
GRID           6       0   3.0+0   0.0+0   0.0+0       0
GRID           7       0   3.0+0   1.7+0   0.0+0       0
GRID           8       0   2.0+0   1.7+0   0.0+0       0
GRID           9       0   0.0+0   3.0+0   0.0+0       0
GRID          10       0   1.0+1   3.0+0   0.0+0       0
GRID          11       0   1.0+1   3.8+0   0.0+0       0
GRID          12       0   0.0+0   3.8+0   0.0+0       0
GRID          13       0   0.0+0   5.0+0   0.0+0       0
GRID          14       0   1.0+1   5.0+0   0.0+0       0
GRID          15       0   1.0+1   5.8+0   0.0+0       0
GRID          16       0   0.0+0   5.8+0   0.0+0       0
GRID          17       0   5.0-1   0.0+0   0.0+0       0
GRID          18       0   1.0+0   8.5-1   0.0+0       0
GRID          19       0   5.0-1   1.7+0   0.0+0       0
GRID          20       0   0.0+0   8.5-1   0.0+0       0
$ ... 12 like lines cut
PARAM    STR_CID      -2
$--1---><--2---><--3---><--4---><--5---><--6---><--7---><--8---><--9---><--10-->
$$$$$$$$$$$$$$$$$$$$$$$$$$$$$$$$$$$ Material $$$$$$$$$$$$$$$$$$$$$$$$$$$$$$$$$$$
MAT1           1  2.0+11  1.0+11   0.0+0   0.0+0   0.0+0   0.0+0
$--1---><--2---><--3---><--4---><--5---><--6---><--7---><--8---><--9---><--10-->
SPC            1       1       1   0.0+0
SPC            1       1       2   0.0+0
SPC            1       1       3   0.0+0
SPC            1       1       4   0.0+0
SPC            1       1       5   0.0+0
SPC            1       1       6   0.0+0
SPC            1       4       1   0.0+0
SPC            1       4       2   0.0+0
SPC            1       4       3   0.0+0
SPC            1       4       4   0.0+0
SPC            1       4       5   0.0+0
SPC            1       4       6   0.0+0
SPC            1       5       1   0.0+0
SPC            1       5       2   0.0+0
SPC            1       5       3   0.0+0
SPC            1       5       4   0.0+0
SPC            1       5       5   0.0+0
SPC            1       5       6   0.0+0
SPC            1       8       1   0.0+0
SPC            1       8       2   0.0+0
$ ... 52 like lines cut
$--1---><--2---><--3---><--4---><--5---><--6---><--7---><--8---><--9---><--10-->
$$$$$$$$$$$$$$$$$$$$$$$$$$$$$$$$$$$ Default $$$$$$$$$$$$$$$$$$$$$$$$$$$$$$$$$$$$
PSHELL         1       1   1.0-3       1               1           0.0+0
CQUAD8         1       1       1       2       3       4      17      18+
+             19      20                                       2   0.0+0
CORD2R         2       0   0.0+0   0.0+0   0.0+0   0.0+0   1.0+0   0.0+0+
+          1.0+0   0.0+0   0.0+0
CQUAD8         2       1       5       6       7       8      21      22+
+             23      24                                       3   0.0+0
CORD2R*                3               0           0.0+0           0.0+0*
*                  0.0+0-7.07106781187-1 7.07106781187-1           0.0+0*
*                  4.0+0           4.0+0           0.0+0                *
*
CQUAD8         3       1       9      10      11      12      25      26+
+             27      28                                       4   0.0+0
CORD2R         4       0   0.0+0   0.0+0   0.0+0   0.0+0   1.0+0   0.0+0+
+          1.0+0   0.0+0   0.0+0
CQUAD8         4       1      14      15      16      13      29      30+
+             31      32                                       5   0.0+0
CORD2R         5       0   0.0+0   0.0+0   0.0+0  -1.0+0   0.0+0   0.0+0+
+          0.0+0   1.0+0   0.0+0
$--1---><--2---><--3---><--4---><--5---><--6---><--7---><--8---><--9---><--10-->
$$$$$$$$$$$$$$$$$$$$$$$$$$$$$$$$$$$$ force $$$$$$$$$$$$$$$$$$$$$$$$$$$$$$$$$$$$$
FORCE          2       6       0   1.0+0   2.5+5   0.0+0   0.0+0
FORCE          2      22       0   1.0+0   1.0+6   0.0+0   0.0+0
FORCE          2       7       0   1.0+0   2.5+5   0.0+0   0.0+0
FORCE          2       2       0   1.0+0   2.5+5   0.0+0   0.0+0
FORCE          2      18       0   1.0+0   1.0+6   0.0+0   0.0+0
FORCE          2       3       0   1.0+0   2.5+5   0.0+0   0.0+0
$--1---><--2---><--3---><--4---><--5---><--6---><--7---><--8---><--9---><--10-->
$$$$$$$$$$$$$$$$$$$$$$$$$$$$$$$$$$$$ force $$$$$$$$$$$$$$$$$$$$$$$$$$$$$$$$$$$$$
FORCE          2      14       0   1.0+0   0.0+0   0.0+0   2.5-4
FORCE          2      29       0   1.0+0   0.0+0   0.0+0   1.0-3
FORCE          2      15       0   1.0+0   0.0+0   0.0+0   2.5-4
FORCE          2      10       0   1.0+0   0.0+0   0.0+0   2.5-4
FORCE          2      26       0   1.0+0   0.0+0   0.0+0   1.0-3
FORCE          2      11       0   1.0+0   0.0+0   0.0+0   2.5-4
$--1---><--2---><--3---><--4---><--5---><--6---><--7---><--8---><--9---><--10-->
LOAD           1   1.0+0   1.0+0       2
ENDDATA 
