$ Generated by Mecway 33
$-----------------------EXECUTIVE CONTROL SECTION-----------------------
SOL 101
CEND
$-------------------------CASE CONTROL SECTION--------------------------
DISPLACEMENT = ALL
SPCFORCES = ALL
MPCFORCES = ALL
SPC = 1
LOAD = 1
BEGIN BULK
$---------------------------BULK DATA SECTION---------------------------
GRID           1       0   0.0+0   0.0+0   0.0+0       0
GRID           2       0   1.0+0   0.0+0   0.0+0       0
GRID           3       0   1.0+0   1.0+0   0.0+0       0
GRID           4       0   0.0+0   1.0+0   0.0+0       0
GRID           5       0   0.0+0   5.0-2   1.0+0       0
GRID           6       0   1.0+0   5.0-2   1.0+0       0
GRID           7       0   1.0+0   9.5-1   1.0+0       0
GRID           8       0   0.0+0   9.5-1   1.0+0       0
GRID           9       0   0.0+0  -5.0-2   1.1+0       0
GRID          10       0   1.0+0  -5.0-2   1.1+0       0
GRID          11       0   1.0+0  1.05+0   1.1+0       0
GRID          12       0   0.0+0  1.05+0   1.1+0       0
GRID          13       0   0.0+0   2.0+0   0.0+0       0
GRID          14       0   1.0+0   2.0+0   0.0+0       0
GRID          15       0   1.0+0   3.0+0   0.0+0       0
GRID          16       0   0.0+0   3.0+0   0.0+0       0
GRID          17       0   0.0+0  2.05+0   1.0+0       0
GRID          18       0   1.0+0  2.05+0   1.0+0       0
GRID          19       0   1.0+0  2.95+0   1.0+0       0
GRID          20       0   0.0+0  2.95+0   1.0+0       0
$ ... 49 like lines cut
PARAM    STR_CID      -2
$--1---><--2---><--3---><--4---><--5---><--6---><--7---><--8---><--9---><--10-->
$$$$$$$$$$$$$$$$$$$$$$$$$$$$$$$$$$$ Material $$$$$$$$$$$$$$$$$$$$$$$$$$$$$$$$$$$
MAT1           1  1.0+11  5.0+10   0.0+0   0.0+0   0.0+0   0.0+0
$--1---><--2---><--3---><--4---><--5---><--6---><--7---><--8---><--9---><--10-->
$$$$$$$$$$$$$$$$$$$$$$$$$$$$$$$$$ Material(2) $$$$$$$$$$$$$$$$$$$$$$$$$$$$$$$$$$
MAT1           2  1.0+11  5.0+10   0.0+0   0.0+0   0.0+0   0.0+0
$--1---><--2---><--3---><--4---><--5---><--6---><--7---><--8---><--9---><--10-->
$$$$$$$$$$$$$$$$$$$$$$$$$$$$$$$$$ Material(3) $$$$$$$$$$$$$$$$$$$$$$$$$$$$$$$$$$
MAT1           3  1.0+11  5.0+10   0.0+0   0.0+0   0.0+0   0.0+0
$--1---><--2---><--3---><--4---><--5---><--6---><--7---><--8---><--9---><--10-->
SPC            1       1       1   0.0+0
SPC            1       1       2   0.0+0
SPC            1       1       3   0.0+0
SPC            1       1       4   0.0+0
SPC            1       1       5   0.0+0
SPC            1       1       6   0.0+0
SPC            1       4       1   0.0+0
SPC            1       4       2   0.0+0
SPC            1       4       3   0.0+0
SPC            1       4       4   0.0+0
SPC            1       4       5   0.0+0
SPC            1       4       6   0.0+0
SPC            1       5       1   0.0+0
SPC            1       5       2   0.0+0
SPC            1       5       3   0.0+0
SPC            1       8       1   0.0+0
SPC            1       8       2   0.0+0
SPC            1       8       3   0.0+0
SPC            1       9       1   0.0+0
SPC            1       9       2   0.0+0
$ ... 103 like lines cut
$--1---><--2---><--3---><--4---><--5---><--6---><--7---><--8---><--9---><--10-->
$$$$$$$$$$$$$$$$$$$$$$$$$$$$$$$$$$$ Default $$$$$$$$$$$$$$$$$$$$$$$$$$$$$$$$$$$$
PSHELL         1       1   1.0-1       1               1           0.0+0
CQUAD4         1       1       1       2       3       4   0.0+0   0.0+0
CQUAD4         5       1      13      25      29      28   0.0+0   0.0+0
CQUAD4         6       1      25      14      26      29   0.0+0   0.0+0
CQUAD4         7       1      29      26      15      27   0.0+0   0.0+0
CQUAD4         8       1      28      29      27      16   0.0+0   0.0+0
CQUAD4        15       1      49      50      51      52   0.0+0   0.0+0
CQUAD4        16       1      53      57      61      60   0.0+0   0.0+0
CQUAD4        17       1      57      54      58      61   0.0+0   0.0+0
CQUAD4        18       1      61      58      55      59   0.0+0   0.0+0
CQUAD4        19       1      60      61      59      56   0.0+0   0.0+0
$--1---><--2---><--3---><--4---><--5---><--6---><--7---><--8---><--9---><--10-->
$$$$$$$$$$$$$$$$$$$$$$$$$$$$$$$$$$ Component $$$$$$$$$$$$$$$$$$$$$$$$$$$$$$$$$$$
PSOLID         2       2       0       2               1
CHEXA          2       2       5       6       7       8       9      10+
+             11      12
CHEXA          3       2      48      43      40      44      47      35+
+             23      36
CHEXA          4       2      45      48      44      41      37      47+
+             36      24
CHEXA          9       2      17      30      46      33      38      42+
+             48      45
CHEXA         10       2      30      18      31      46      42      39+
+             43      48
CHEXA         11       2      46      31      19      32      48      43+
+             40      44
CHEXA         12       2      33      46      32      20      45      48+
+             44      41
CHEXA         13       2      38      42      48      45      21      34+
+             47      37
CHEXA         14       2      42      39      43      48      34      22+
+             35      47
$--1---><--2---><--3---><--4---><--5---><--6---><--7---><--8---><--9---><--10-->
$$$$$$$$$$$$$$$$$$$$$$$$$$$$$$$$$ Component(2) $$$$$$$$$$$$$$$$$$$$$$$$$$$$$$$$$
PSHELL         3       3   1.0-3       3               3           0.0+0
CQUAD4        20       3      62      63      64      65   0.0+0   0.0+0
CQUAD4        21       3      66      67      68      69   0.0+0   0.0+0
$--1---><--2---><--3---><--4---><--5---><--6---><--7---><--8---><--9---><--10-->
$$$$$$$$$$$$$$$$$$$$$$$$$$$$$$$$$$$$ force $$$$$$$$$$$$$$$$$$$$$$$$$$$$$$$$$$$$$
FORCE          2       2       0   1.0+0   5.0+9   0.0+0   0.0+0
FORCE          2       3       0   1.0+0   5.0+9   0.0+0   0.0+0
$--1---><--2---><--3---><--4---><--5---><--6---><--7---><--8---><--9---><--10-->
$$$$$$$$$$$$$$$$$$$$$$$$$$$$$$$$$$$$ force $$$$$$$$$$$$$$$$$$$$$$$$$$$$$$$$$$$$$
FORCE          2       7       0   1.0+0   2.5+9   0.0+0   0.0+0
FORCE          2       6       0   1.0+0   2.5+9   0.0+0   0.0+0
FORCE          2      10       0   1.0+0   2.5+9   0.0+0   0.0+0
FORCE          2      11       0   1.0+0   2.5+9   0.0+0   0.0+0
$--1---><--2---><--3---><--4---><--5---><--6---><--7---><--8---><--9---><--10-->
$$$$$$$$$$$$$$$$$$$$$$$$$$$$$$$$$$$$ force $$$$$$$$$$$$$$$$$$$$$$$$$$$$$$$$$$$$$
FORCE          2      26       0   1.0+0   5.0+9   0.0+0   0.0+0
$--1---><--2---><--3---><--4---><--5---><--6---><--7---><--8---><--9---><--10-->
$$$$$$$$$$$$$$$$$$$$$$$$$$$$$$$$$$$$ force $$$$$$$$$$$$$$$$$$$$$$$$$$$$$$$$$$$$$
FORCE          2      14       0   1.0+0   2.5+9   0.0+0   0.0+0
FORCE          2      15       0   1.0+0   2.5+9   0.0+0   0.0+0
$--1---><--2---><--3---><--4---><--5---><--6---><--7---><--8---><--9---><--10-->
$$$$$$$$$$$$$$$$$$$$$$$$$$$$$$$$$$$$ force $$$$$$$$$$$$$$$$$$$$$$$$$$$$$$$$$$$$$
FORCE          2      18       0   1.0+0  6.25+8   0.0+0   0.0+0
FORCE          2      22       0   1.0+0  6.25+8   0.0+0   0.0+0
FORCE          2      19       0   1.0+0  6.25+8   0.0+0   0.0+0
FORCE          2      23       0   1.0+0  6.25+8   0.0+0   0.0+0
$--1---><--2---><--3---><--4---><--5---><--6---><--7---><--8---><--9---><--10-->
$$$$$$$$$$$$$$$$$$$$$$$$$$$$$$$$$$$$ force $$$$$$$$$$$$$$$$$$$$$$$$$$$$$$$$$$$$$
FORCE          2      40       0   1.0+0  1.25+9   0.0+0   0.0+0
FORCE          2      35       0   1.0+0  1.25+9   0.0+0   0.0+0
FORCE          2      31       0   1.0+0  1.25+9   0.0+0   0.0+0
FORCE          2      39       0   1.0+0  1.25+9   0.0+0   0.0+0
$--1---><--2---><--3---><--4---><--5---><--6---><--7---><--8---><--9---><--10-->
$$$$$$$$$$$$$$$$$$$$$$$$$$$$$$$$$$$$ force $$$$$$$$$$$$$$$$$$$$$$$$$$$$$$$$$$$$$
FORCE          2      43       0   1.0+0   2.5+9   0.0+0   0.0+0
$--1---><--2---><--3---><--4---><--5---><--6---><--7---><--8---><--9---><--10-->
$$$$$$$$$$$$$$$$$$$$$$$$$$$$$$$$$$$$ moment $$$$$$$$$$$$$$$$$$$$$$$$$$$$$$$$$$$$
MOMENT*                2              50               0           1.0+0*
*                  0.0+0-8.33333333333+6           0.0+0
$--1---><--2---><--3---><--4---><--5---><--6---><--7---><--8---><--9---><--10-->
$$$$$$$$$$$$$$$$$$$$$$$$$$$$$$$$$$$$ moment $$$$$$$$$$$$$$$$$$$$$$$$$$$$$$$$$$$$
MOMENT*                2              51               0           1.0+0*
*                  0.0+0-8.33333333333+6           0.0+0
$--1---><--2---><--3---><--4---><--5---><--6---><--7---><--8---><--9---><--10-->
$$$$$$$$$$$$$$$$$$$$$$$$$$$$$$$$$$$$ moment $$$$$$$$$$$$$$$$$$$$$$$$$$$$$$$$$$$$
MOMENT*                2              58               0           1.0+0*
*                  0.0+0-8.33333333333+6           0.0+0
$--1---><--2---><--3---><--4---><--5---><--6---><--7---><--8---><--9---><--10-->
$$$$$$$$$$$$$$$$$$$$$$$$$$$$$$$$$$$$ moment $$$$$$$$$$$$$$$$$$$$$$$$$$$$$$$$$$$$
MOMENT*                2              55               0           1.0+0*
*                  0.0+0-4.16666666667+6           0.0+0
$--1---><--2---><--3---><--4---><--5---><--6---><--7---><--8---><--9---><--10-->
$$$$$$$$$$$$$$$$$$$$$$$$$$$$$$$$$$$$ moment $$$$$$$$$$$$$$$$$$$$$$$$$$$$$$$$$$$$
MOMENT*                2              54               0           1.0+0*
*                  0.0+0-4.16666666667+6           0.0+0
$--1---><--2---><--3---><--4---><--5---><--6---><--7---><--8---><--9---><--10-->
$$$$$$$$$$$$$$$$$$$$$$$$$$$$$$$$$$$$ force $$$$$$$$$$$$$$$$$$$$$$$$$$$$$$$$$$$$$
FORCE          2      63       0   1.0+0   5.0+7   0.0+0   0.0+0
FORCE          2      64       0   1.0+0   5.0+7   0.0+0   0.0+0
$--1---><--2---><--3---><--4---><--5---><--6---><--7---><--8---><--9---><--10-->
$$$$$$$$$$$$$$$$$$$$$$$$$$$$$$$$$$$$ moment $$$$$$$$$$$$$$$$$$$$$$$$$$$$$$$$$$$$
MOMENT*                2              67               0           1.0+0*
*                  0.0+0  -8.333333335+0           0.0+0
$--1---><--2---><--3---><--4---><--5---><--6---><--7---><--8---><--9---><--10-->
$$$$$$$$$$$$$$$$$$$$$$$$$$$$$$$$$$$$ moment $$$$$$$$$$$$$$$$$$$$$$$$$$$$$$$$$$$$
MOMENT*                2              68               0           1.0+0*
*                  0.0+0  -8.333333335+0           0.0+0
$--1---><--2---><--3---><--4---><--5---><--6---><--7---><--8---><--9---><--10-->
LOAD           1   1.0+0   1.0+0       2
PARAM,QUAD4TYP,MITC4+

$ 1 element
SNORM,1,0,0.,-1.,1.
SNORM,2,0,0.,-1.,1.
SNORM,3,0,0.,1.,1.
SNORM,4,0,0.,1.,1.

$ 4x4 elements
SNORM,13,0,0.,-1.,1.
SNORM,25,0,0.,-1.,1.
SNORM,14,0,0.,-1.,1.
SNORM,16,0,0.,1.,1.
SNORM,27,0,0.,1.,1.
SNORM,15,0,0.,1.,1.

$ 1 element 0.001 thickness
SNORM,62,0,0.,-1.,1.
SNORM,63,0,0.,-1.,1.
SNORM,65,0,0.,1.,1.
SNORM,64,0,0.,1.,1.

ENDDATA 
