ID TEST,CONTN
SOL 101
CEND
  TITLE = STATIC
  ECHO = NONE
  DISPLACEMENT(PRINT) = ALL
  SPCFORCE(PRINT) = ALL
  OLOAD(PRINT) = ALL
  MPCFORCE(PRINT) = ALL
  GPFORCE(PRINT) = ALL
  FORCE(PRINT,CORNER) = ALL
  STRESS(PRINT,CORNER) = ALL
  SPC = 1
  LOAD = 1
BEGIN BULK
PARAM,PRGPST,YES
PARAM,POST,-1
PARAM,OGEOM,NO
PARAM,AUTOSPC,YES
$PARAM,K6ROT,100. - REMOVED SINCE NOT FULLY FUNCTIONAL IN MYSTRAN 15.1.4
PARAM,GRDPNT,0
CORD2C         1       0      0.      0.      0.      0.      0.      1.+CONTNC1
+CONTNC1      1.      0.      1.        
CORD2S         2       0      0.      0.      0.      0.      0.      1.+CONTNC2
+CONTNC2      1.      0.      1.        
CORD2R         3       0      0.      0.      0..2511933-.122501.9601539+       
+       .9197693.3392322-.197347        
FORCE          1       2       0      1.   2500.   1750.    750.
SPC1           1  123456       1
PBAR           1       1    184.21565.3311125.3323108.67      0.        +       
+           -15.    -10.     15.    -10.     15.     10.    -15.     10.+       
+       .5827076.3293826      0.
MAT1           1  70000.26315.79     .33      0.      0.      0.        
GRID           1       3      0.      0.      0.       0
GRID           2       3-7.11-15    130.    200.       0
CBAR           1       1       1       2      1.      0.      0.        +       
+                       13.796545.088483-2.9602113.796545.088483-2.96021
$
$ DEBUG IS USED TO REQUEST ANS FILE, WHICH IS EASIER TO PARSE FOR BENCHMARKING (THIS IS MYSTRAN SPECIFIC)
DEBUG   200     1                                                       ANS
$
ENDDATA
