$ Generated by Mecway 33
$-----------------------EXECUTIVE CONTROL SECTION-----------------------
SOL 101
CEND
$-------------------------CASE CONTROL SECTION--------------------------
DISPLACEMENT = ALL
SPCFORCES = ALL
MPCFORCES = ALL
STRESS(CORNER) = ALL
STRAIN(CORNER) = ALL
FORCE(CORNER) = ALL
SPC = 1
LOAD = 1
BEGIN BULK
$---------------------------BULK DATA SECTION---------------------------
GRID           1       0 -3.75-1   0.0+0   0.0+0       0
GRID*                  2               0-2.30969883128-1-9.56708580913-2*
*                  0.0+0               0
GRID*                  3               0-1.76776695297-1-1.76776695297-1*
*                  0.0+0               0
GRID*                  4               0-2.65165042945-1 2.65165042945-1*
*                  0.0+0               0
GRID*                  5               0-9.56708580913-2-2.30969883128-1*
*                  0.0+0               0
GRID*                  6               0-2.65165042945-1-2.65165042945-1*
*                  0.0+0               0
GRID*                  7               0-9.56708580913-2 2.30969883128-1*
*                  0.0+0               0
GRID           8       0   0.0+0  -2.5-1   0.0+0       0
GRID           9       0  -2.5-1   0.0+0   0.0+0       0
GRID          10       0   0.0+0   2.5-1   0.0+0       0
GRID          11       0   0.0+0   5.0-1   0.0+0       0
GRID*                 12               0-1.91341716183-1-4.61939766256-1*
*                  0.0+0               0
GRID          13       0   0.0+0   7.5-1   0.0+0       0
GRID          14       0   0.0+0  -5.0-1   0.0+0       0
GRID*                 15               0-2.30969883128-1 9.56708580913-2*
*                  0.0+0               0
GRID          16       0   0.0+0   1.0+0   0.0+0       0
GRID          17       0  -5.0-1   0.0+0   0.0+0       0
GRID*                 18               0-4.61939766256-1 1.91341716183-1*
*                  0.0+0               0
GRID*                 19               0-3.53553390593-1 3.53553390593-1*
*                  0.0+0               0
GRID          20       0  -7.5-1   0.0+0   0.0+0       0
GRID*                 21               0-6.76776695297-1 6.76776695297-1*
*                  0.0+0               0
GRID          22       0  -1.0+0   0.0+0   0.0+0       0
GRID          23       0  -1.0+0   5.0-1   0.0+0       0
GRID          24       0  -1.0+0   1.0+0   0.0+0       0
GRID          25       0   0.0+0  3.75-1   0.0+0       0
GRID*                 26               0-1.91341716183-1 4.61939766256-1*
*                  0.0+0               0
GRID          27       0   0.0+0  -7.5-1   0.0+0       0
GRID          28       0   0.0+0 -1.25-1   0.0+0       0
GRID          29       0  -5.0-1  -1.0+0   0.0+0       0
GRID          30       0   0.0+0  -1.0+0   0.0+0       0
GRID          31       0  -5.0-1   1.0+0   0.0+0       0
GRID          32       0 -1.25-1   0.0+0   0.0+0       0
GRID          33       0   0.0+0 -3.75-1   0.0+0       0
GRID*                 34               0-4.61939766256-1-1.91341716183-1*
*                  0.0+0               0
GRID*                 35               0-3.53553390593-1-3.53553390593-1*
*                  0.0+0               0
GRID          36       0   0.0+0   0.0+0   0.0+0       0
GRID*                 37               0-6.76776695297-1-6.76776695297-1*
*                  0.0+0               0
GRID          38       0   0.0+0  1.25-1   0.0+0       0
GRID          39       0  -1.0+0  -5.0-1   0.0+0       0
GRID          40       0  -1.0+0  -1.0+0   0.0+0       0
GRID*                 41               0-1.76776695297-1 1.76776695297-1*
*                  0.0+0               0
PARAM    STR_CID      -2
$--1---><--2---><--3---><--4---><--5---><--6---><--7---><--8---><--9---><--10-->
$$$$$$$$$$$$$$$$$$$$$$$$$$$$$$$$$$$ Material $$$$$$$$$$$$$$$$$$$$$$$$$$$$$$$$$$$
MAT1*                  1          5.0+10 1.9230769231+10           3.0-1*
*                  0.0+0           0.0+0           0.0+0
$--1---><--2---><--3---><--4---><--5---><--6---><--7---><--8---><--9---><--10-->
SPC            1      29       2   0.0+0
SPC            1      29       3   0.0+0
SPC            1      29       4   0.0+0
SPC            1      30       2   0.0+0
SPC            1      30       4   0.0+0
SPC            1      37       3   0.0+0
SPC            1      39       1   0.0+0
SPC            1      39       3   0.0+0
SPC            1      40       2   0.0+0
SPC            1      40       4   0.0+0
$--1---><--2---><--3---><--4---><--5---><--6---><--7---><--8---><--9---><--10-->
$$$$$$$$$$$$$$$$$$$$$$$$$$$$$$$$$$$ Default $$$$$$$$$$$$$$$$$$$$$$$$$$$$$$$$$$$$
PSHELL         1       1   2.0-2       1               1           0.0+0
CQUAD8         1       1      36       9       3       8      32       2+
+              5      28                                       2   0.0+0
CORD2R         2       0   0.0+0   0.0+0   0.0+0  -1.0+0   0.0+0   0.0+0+
+          0.0+0   1.0+0   0.0+0
CQUAD8         2       1      17       9      41      19       1      15+
+              4      18                                       3   0.0+0
CORD2R         3       0   0.0+0   0.0+0   0.0+0  -1.0+0   0.0+0   0.0+0+
+          0.0+0   1.0+0   0.0+0
CQUAD8         3       1      22      17      19      24      20      18+
+             21      23                                       4   0.0+0
CORD2R         4       0   0.0+0   0.0+0   0.0+0  -1.0+0   0.0+0   0.0+0+
+          0.0+0   1.0+0   0.0+0
CQUAD8         4       1      24      19      11      16      21      26+
+             13      31                                       5   0.0+0
CORD2R         5       0   0.0+0   0.0+0   0.0+0  -1.0+0   0.0+0   0.0+0+
+          0.0+0   1.0+0   0.0+0
CQUAD8         5       1      17      22      40      35      20      39+
+             37      34                                       6   0.0+0
CORD2R         6       0   0.0+0   0.0+0   0.0+0  -1.0+0   0.0+0   0.0+0+
+          0.0+0   1.0+0   0.0+0
CQUAD8         6       1      35      40      30      14      37      29+
+             27      12                                       7   0.0+0
CORD2R         7       0   0.0+0   0.0+0   0.0+0  -1.0+0   0.0+0   0.0+0+
+          0.0+0   1.0+0   0.0+0
CQUAD8         7       1      19      41      10      11       4       7+
+             25      26                                       8   0.0+0
CORD2R         8       0   0.0+0   0.0+0   0.0+0  -1.0+0   0.0+0   0.0+0+
+          0.0+0   1.0+0   0.0+0
CQUAD8         8       1       9      36      10      41      32      38+
+              7      15                                       9   0.0+0
CORD2R         9       0   0.0+0   0.0+0   0.0+0  -1.0+0   0.0+0   0.0+0+
+          0.0+0   1.0+0   0.0+0
CQUAD8         9       1       9      17      35       3       1      34+
+              6       2                                      10   0.0+0
CORD2R        10       0   0.0+0   0.0+0   0.0+0  -1.0+0   0.0+0   0.0+0+
+          0.0+0   1.0+0   0.0+0
CQUAD8        10       1       3      35      14       8       6      12+
+             33       5                                      11   0.0+0
CORD2R        11       0   0.0+0   0.0+0   0.0+0  -1.0+0   0.0+0   0.0+0+
+          0.0+0   1.0+0   0.0+0
$--1---><--2---><--3---><--4---><--5---><--6---><--7---><--8---><--9---><--10-->
$$$$$$$$$$$$$$$$$$$$$$$$$$$$$$$$$$$$ force $$$$$$$$$$$$$$$$$$$$$$$$$$$$$$$$$$$$$
FORCE*                 2              24               0           1.0+0*
*                  0.0+0 1.66666666667+5           0.0+0
FORCE*                 2              16               0           1.0+0*
*                  0.0+0 1.66666666667+5           0.0+0
FORCE*                 2              31               0           1.0+0*
*                  0.0+0 6.66666666667+5           0.0+0
$--1---><--2---><--3---><--4---><--5---><--6---><--7---><--8---><--9---><--10-->
LOAD           1   1.0+0   1.0+0       2
ENDDATA 
