$ Generated by Mecway 33
$-----------------------EXECUTIVE CONTROL SECTION-----------------------
SOL 101
CEND
$-------------------------CASE CONTROL SECTION--------------------------
DISPLACEMENT = ALL
SPCFORCES = ALL
MPCFORCES = ALL
SPC = 1
LOAD = 1
BEGIN BULK
$---------------------------BULK DATA SECTION---------------------------
GRID           1       0   0.0+0   0.0+0   0.0+0       0
GRID           2       0   1.0+0   0.0+0   0.0+0       0
GRID           3       0   1.0+0   1.0+0   0.0+0       0
GRID           4       0   0.0+0   1.0+0   0.0+0       0
GRID           5       0   0.0+0   0.0+0   1.0+0       0
GRID           6       0   1.0+0   0.0+0   1.0+0       0
GRID           7       0   1.0+0   1.0+0   1.0+0       0
GRID           8       0   0.0+0   1.0+0   1.0+0       0
GRID           9       0   5.0-1   5.0-1   1.0+0       0
GRID          10       0   0.0+0   5.0-1   1.0+0       0
GRID          11       0   5.0-1   0.0+0   0.0+0       0
GRID          12       0   1.0+0   5.0-1   0.0+0       0
GRID          13       0   5.0-1   1.0+0   0.0+0       0
GRID          14       0   0.0+0   5.0-1   0.0+0       0
GRID          15       0   0.0+0   0.0+0   5.0-1       0
GRID          16       0   1.0+0   0.0+0   5.0-1       0
GRID          17       0   1.0+0   1.0+0   5.0-1       0
GRID          18       0   0.0+0   1.0+0   5.0-1       0
GRID          19       0   5.0-1   0.0+0   1.0+0       0
GRID          20       0   1.0+0   5.0-1   1.0+0       0
$ ... 22 like lines cut
PARAM    STR_CID      -2
$--1---><--2---><--3---><--4---><--5---><--6---><--7---><--8---><--9---><--10-->
$$$$$$$$$$$$$$$$$$$$$$$$$$$$$$$$$$$ Material $$$$$$$$$$$$$$$$$$$$$$$$$$$$$$$$$$$
MAT1           1  1.0+11  5.0+10   0.0+0   0.0+0   0.0+0   0.0+0
$--1---><--2---><--3---><--4---><--5---><--6---><--7---><--8---><--9---><--10-->
SPC            1       1       1   0.0+0
SPC            1       1       2   0.0+0
SPC            1       1       3   0.0+0
SPC            1       2       1   0.0+0
SPC            1       2       2   0.0+0
SPC            1       2       3   0.0+0
SPC            1       3       1   0.0+0
SPC            1       3       2   0.0+0
SPC            1       3       3   0.0+0
SPC            1       4       1   0.0+0
SPC            1       4       2   0.0+0
SPC            1       4       3   0.0+0
SPC            1      11       1   0.0+0
SPC            1      11       2   0.0+0
SPC            1      11       3   0.0+0
SPC            1      12       1   0.0+0
SPC            1      12       2   0.0+0
SPC            1      12       3   0.0+0
SPC            1      13       1   0.0+0
SPC            1      13       2   0.0+0
$ ... 28 like lines cut
$--1---><--2---><--3---><--4---><--5---><--6---><--7---><--8---><--9---><--10-->
$$$$$$$$$$$$$$$$$$$$$$$$$$$$$$$$$$$ Default $$$$$$$$$$$$$$$$$$$$$$$$$$$$$$$$$$$$
PSOLID         1       1       0       3               1
CHEXA          1       1       8       4       3       7       5       1+
+              2       6      18      13      17      21      10      14+
+             12      20      15      11      16      19
CHEXA          2       1      29      25      24      28      26      22+
+             23      27      38      33      37      41      30      34+
+             32      40      35      31      36      39
$--1---><--2---><--3---><--4---><--5---><--6---><--7---><--8---><--9---><--10-->
$$$$$$$$$$$$$$$$$$$$$$$$$$$$$$$$$$$$ moment $$$$$$$$$$$$$$$$$$$$$$$$$$$$$$$$$$$$
MOMENT         2       9       0   1.0+0   0.0+0   1.0+6   0.0+0
$--1---><--2---><--3---><--4---><--5---><--6---><--7---><--8---><--9---><--10-->
$$$$$$$$$$$$$$$$$$$$$$$$$$$$$$$$$$$$ moment $$$$$$$$$$$$$$$$$$$$$$$$$$$$$$$$$$$$
MOMENT         2      42       0   1.0+0   0.0+0   1.0+6   0.0+0
$--1---><--2---><--3---><--4---><--5---><--6---><--7---><--8---><--9---><--10-->
$$$$$$$$$$$$$$$$$$$$$$$$$$$$ node-surface coupling $$$$$$$$$$$$$$$$$$$$$$$$$$$$$
RBE3*                  3                               9          123456*
*       -8.33333333333-2             123               7 3.33333333333-1*
*                    123              21-8.33333333333-2             123*
*                      8 3.33333333333-1             123              10*
*       -8.33333333333-2             123               5 3.33333333333-1*
*                    123              19-8.33333333333-2             123*
*                      6 3.33333333333-1             123              20*
*       
$--1---><--2---><--3---><--4---><--5---><--6---><--7---><--8---><--9---><--10-->
$$$$$$$$$$$$$$$$$$$$$$$$$$$$ node-surface coupling $$$$$$$$$$$$$$$$$$$$$$$$$$$$$
RBE3*                  4                              42          123456*
*       -8.33333333333-2             123              28 3.33333333333-1*
*                    123              41-8.33333333333-2             123*
*                     29 3.33333333333-1             123              30*
*       -8.33333333333-2             123              26 3.33333333333-1*
*                    123              39-8.33333333333-2             123*
*                     27 3.33333333333-1             123              40*
*       
$--1---><--2---><--3---><--4---><--5---><--6---><--7---><--8---><--9---><--10-->
LOAD           1   1.0+0   1.0+0       2
ENDDATA 
