$ Generated by Mecway 33
$-----------------------EXECUTIVE CONTROL SECTION-----------------------
SOL 101
CEND
$-------------------------CASE CONTROL SECTION--------------------------
DISPLACEMENT = ALL
SPCFORCES = ALL
MPCFORCES = ALL
SPC = 1
LOAD = 1
BEGIN BULK
$---------------------------BULK DATA SECTION---------------------------
GRID           1       0   0.0+0  -1.0+0   0.0+0       0
GRID           2       0   1.0+0   0.0+0   0.0+0       0
GRID           3       0   0.0+0   1.0+0   0.0+0       0
GRID           4       0  -1.0+0   0.0+0   0.0+0       0
GRID           5       0   0.0+0  -1.0+0   2.4+0       0
GRID           6       0   1.0+0   0.0+0   2.0+0       0
GRID           7       0   0.0+0   1.0+0   1.6+0       0
GRID           8       0  -1.0+0   0.0+0   2.0+0       0
GRID           9       0   0.0+0   0.0+0   2.0+0       0
GRID          10       0   0.0+0   1.0+0   1.6+0       0
GRID          11       0   0.0+0  -1.0+0   2.4+0       0
GRID          12       0   1.0+0   0.0+0   2.0+0       0
GRID          13       0  -1.0+0   0.0+0   2.0+0       0
PARAM    STR_CID      -2
$--1---><--2---><--3---><--4---><--5---><--6---><--7---><--8---><--9---><--10-->
$$$$$$$$$$$$$$$$$$$$$$$$$$$$$$$$$$$ Material $$$$$$$$$$$$$$$$$$$$$$$$$$$$$$$$$$$
MAT1           1  2.0+11  1.0+11   0.0+0   0.0+0   0.0+0   0.0+0
$--1---><--2---><--3---><--4---><--5---><--6---><--7---><--8---><--9---><--10-->
$$$$$$$$$$$$$$$$$$$$$$$$$$$$$$$$$ Material(2) $$$$$$$$$$$$$$$$$$$$$$$$$$$$$$$$$$
MAT1           2  2.0+11  1.0+11   0.0+0   0.0+0   0.0+0   0.0+0
$--1---><--2---><--3---><--4---><--5---><--6---><--7---><--8---><--9---><--10-->
SPC            1       1       1   0.0+0
SPC            1       1       2   0.0+0
SPC            1       1       3   0.0+0
SPC            1       2       1   0.0+0
SPC            1       2       2   0.0+0
SPC            1       2       3   0.0+0
SPC            1       3       1   0.0+0
SPC            1       3       2   0.0+0
SPC            1       3       3   0.0+0
SPC            1       4       1   0.0+0
SPC            1       4       2   0.0+0
SPC            1       4       3   0.0+0
$--1---><--2---><--3---><--4---><--5---><--6---><--7---><--8---><--9---><--10-->
$$$$$$$$$$$$$$$$$$$$$$$$$$$$$$$$$$$ Default $$$$$$$$$$$$$$$$$$$$$$$$$$$$$$$$$$$$
PSOLID         1       1       0       2               1
CHEXA          1       1       1       2       3       4       5       6+
+              7       8
$--1---><--2---><--3---><--4---><--5---><--6---><--7---><--8---><--9---><--10-->
$$$$$$$$$$$$$$$$$$$$$$$$$$$$$$$$$$ Component $$$$$$$$$$$$$$$$$$$$$$$$$$$$$$$$$$$
PBAR*                  2               2           1.0-2 8.33333333333-6*
*        8.33333333333-6 1.40833333333-5           0.0+0
CBAR           2       2       9      10  -1.0+0   0.0+0   0.0+0        
CBAR           3       2       9      11   1.0+0   0.0+0   0.0+0        
CBAR           4       2       9      12   0.0+0   1.0+0   0.0+0        
CBAR           5       2       9      13   0.0+0  -1.0+0   0.0+0        
$--1---><--2---><--3---><--4---><--5---><--6---><--7---><--8---><--9---><--10-->
$$$$$$$$$$$$$$$$$$$$$$$$$$$$$$$$$$$$ force $$$$$$$$$$$$$$$$$$$$$$$$$$$$$$$$$$$$$
FORCE          2       5       0   1.0+0   2.5+7   0.0+0   0.0+0
FORCE          2       6       0   1.0+0   2.5+7   0.0+0   0.0+0
FORCE          2       7       0   1.0+0   2.5+7   0.0+0   0.0+0
FORCE          2       8       0   1.0+0   2.5+7   0.0+0   0.0+0
$--1---><--2---><--3---><--4---><--5---><--6---><--7---><--8---><--9---><--10-->
$$$$$$$$$$$$$$$$$$$$$$$$$$$$ node-surface coupling $$$$$$$$$$$$$$$$$$$$$$$$$$$$$
RBE3*                  6                               9          123456*
*        5.38516480713-1             123               5 5.38516480713-1*
*                    123               6 5.38516480713-1             123*
*                      7 5.38516480713-1             123               8
$--1---><--2---><--3---><--4---><--5---><--6---><--7---><--8---><--9---><--10-->
LOAD           1   1.0+0   1.0+0       2
ENDDATA 
