$ Generated by Mecway 33
$-----------------------EXECUTIVE CONTROL SECTION-----------------------
SOL 101
CEND
$-------------------------CASE CONTROL SECTION--------------------------
DISPLACEMENT = ALL
SPCFORCES = ALL
MPCFORCES = ALL
STRESS(CORNER) = ALL
SPC = 1
LOAD = 1
BEGIN BULK
$---------------------------BULK DATA SECTION---------------------------
GRID           1       0   0.0+0   0.0+0   0.0+0       0
GRID           2       0   1.0+0   0.0+0   0.0+0       0
GRID           3       0   1.0+0   2.0-1   0.0+0       0
GRID           4       0   0.0+0   2.0-1   0.0+0       0
GRID           5       0   0.0+0   0.0+0   1.0+0       0
GRID           6       0   1.0+0   0.0+0   1.0+0       0
GRID           7       0   1.0+0   2.0-1   1.0+0       0
GRID           8       0   0.0+0   2.0-1   1.0+0       0
GRID           9       0  -1.0-1   2.0-1  -1.0-1       0
GRID          10       0   1.1+0   2.0-1  -1.0-1       0
GRID          11       0   1.1+0   3.6-1  -1.0-1       0
GRID          12       0  -1.0-1   3.6-1  -1.0-1       0
GRID          13       0  -1.0-1   2.0-1   1.1+0       0
GRID          14       0   1.1+0   2.0-1   1.1+0       0
GRID          15       0   1.1+0   3.6-1   1.1+0       0
GRID          16       0  -1.0-1   3.6-1   1.1+0       0
PARAM    STR_CID      -2
$--1---><--2---><--3---><--4---><--5---><--6---><--7---><--8---><--9---><--10-->
$$$$$$$$$$$$$$$$$$$$$$$$$$$$$$$$$$$ Material $$$$$$$$$$$$$$$$$$$$$$$$$$$$$$$$$$$
MAT1           1  2.0+11  1.0+11   0.0+0   0.0+0   0.0+0   0.0+0
$--1---><--2---><--3---><--4---><--5---><--6---><--7---><--8---><--9---><--10-->
SPC            1       1       1   0.0+0
SPC            1       1       2   0.0+0
SPC            1       1       3   0.0+0
SPC            1       2       1   0.0+0
SPC            1       2       2   0.0+0
SPC            1       2       3   0.0+0
SPC            1       5       1   0.0+0
SPC            1       5       2   0.0+0
SPC            1       5       3   0.0+0
SPC            1       6       1   0.0+0
SPC            1       6       2   0.0+0
SPC            1       6       3   0.0+0
$--1---><--2---><--3---><--4---><--5---><--6---><--7---><--8---><--9---><--10-->
$$$$$$$$$$$$$$$$$$$$$$$$$$$$$$$$$$$ Default $$$$$$$$$$$$$$$$$$$$$$$$$$$$$$$$$$$$
PSOLID         1       1       0       2               1
CHEXA          1       1       1       5       6       2       4       8+
+              7       3
CHEXA          2       1       9      10      11      12      13      14+
+             15      16
$--1---><--2---><--3---><--4---><--5---><--6---><--7---><--8---><--9---><--10-->
$$$$$$$$$$$$$$$$$$$$$$$$$$$$$$$$$$$$ force $$$$$$$$$$$$$$$$$$$$$$$$$$$$$$$$$$$$$
FORCE          2      11       0   1.0+0   0.0+0   2.5+4   0.0+0
FORCE          2      12       0   1.0+0   0.0+0   2.5+4   0.0+0
FORCE          2      15       0   1.0+0   0.0+0   2.5+4   0.0+0
FORCE          2      16       0   1.0+0   0.0+0   2.5+4   0.0+0
$--1---><--2---><--3---><--4---><--5---><--6---><--7---><--8---><--9---><--10-->
$$$$$$$$$$$$$$$$$$$$$$$$$$$$ node-surface coupling $$$$$$$$$$$$$$$$$$$$$$$$$$$$$
RBE3           3              13  123456   2.5-1     123       4   2.5-1+
+            123       8   2.5-1     123       7   2.5-1     123       3
$--1---><--2---><--3---><--4---><--5---><--6---><--7---><--8---><--9---><--10-->
$$$$$$$$$$$$$$$$$$$$$$$$$$$$ node-surface coupling $$$$$$$$$$$$$$$$$$$$$$$$$$$$$
RBE3           4              14  123456   2.5-1     123       4   2.5-1+
+            123       8   2.5-1     123       7   2.5-1     123       3
$--1---><--2---><--3---><--4---><--5---><--6---><--7---><--8---><--9---><--10-->
$$$$$$$$$$$$$$$$$$$$$$$$$$$$ node-surface coupling $$$$$$$$$$$$$$$$$$$$$$$$$$$$$
RBE3           5              10  123456   2.5-1     123       4   2.5-1+
+            123       8   2.5-1     123       7   2.5-1     123       3
$--1---><--2---><--3---><--4---><--5---><--6---><--7---><--8---><--9---><--10-->
$$$$$$$$$$$$$$$$$$$$$$$$$$$$ node-surface coupling $$$$$$$$$$$$$$$$$$$$$$$$$$$$$
RBE3           6               9  123456   2.5-1     123       4   2.5-1+
+            123       8   2.5-1     123       7   2.5-1     123       3
$--1---><--2---><--3---><--4---><--5---><--6---><--7---><--8---><--9---><--10-->
LOAD           1   1.0+0   1.0+0       2
ENDDATA 
