$ Generated by Mecway 33
$-----------------------EXECUTIVE CONTROL SECTION-----------------------
SOL 101
CEND
$-------------------------CASE CONTROL SECTION--------------------------
DISPLACEMENT = ALL
SPCFORCES = ALL
MPCFORCES = ALL
STRESS(CORNER) = ALL
SPC = 1
LOAD = 1
BEGIN BULK
$---------------------------BULK DATA SECTION---------------------------
GRID*                  1               0-7.07106781187-5-7.07106781187-5*
*                  0.0+0               0
GRID*                  2               0-9.69289775325-5 2.45921392826-5*
*                  0.0+0               0
GRID*                  3               0-3.01392452067-5 9.53500178205-5*
*                  0.0+0               0
GRID*                  4               0 7.00337133392-5 7.13812229927-5*
*                  0.0+0               0
GRID*                  5               0 9.59217251547-5-2.82669885795-5*
*                  0.0+0               0
GRID*                  6               0  2.4044997861-5-9.70661531012-5*
*                  0.0+0               0
GRID*                  7               0-7.07106781187-5-7.07106781187-5*
*                  4.0-4               0
GRID*                  8               0-9.65729527554-5 2.59550533827-5*
*                  4.0-4               0
GRID*                  9               0 -2.5955052569-5 9.65729529741-5*
*                  4.0-4               0
GRID*                 10               0 7.07106787738-5 7.07106774636-5*
*                  4.0-4               0
GRID*                 11               0 9.65729525857-5-2.59550540141-5*
*                  4.0-4               0
GRID*                 12               0 2.59550526672-5-9.65729529477-5*
*                  4.0-4               0
GRID*                 13               0-7.27793619738-7-3.75228015804-7*
*                  0.0+0               0
GRID*                 14               0    1.2307119-13   -2.7600399-13*
*                  4.0-4               0
GRID*                 15               0  -9.842925967-5-1.76544850055-5*
*                  1.0-4               0
GRID*                 16               0 2.51015941366-5 9.67982952939-5*
*                  1.0-4               0
GRID*                 17               0-2.68090312692-5-9.63393784618-5*
*                  1.0-4               0
GRID*                 18               0 9.73747899855-5 2.27629144725-5*
*                  1.0-4               0
GRID*                 19               0-9.72966481241-5-2.30946371222-5*
*        3.14523805246-4               0
GRID*                 20               0 1.18665582508-5 9.92934277547-5*
*        2.84087741487-4               0
$ ... 360 like lines cut
GRID         201       0   0.0+0   0.0+0  -1.0-4       0
GRID*                202               0-2.01233906936-5  -7.175421638-5*
*         7.1502606345-5               0
GRID*                203               0-3.21353301496-5-6.68731967045-5*
*          4.533680846-5               0
GRID*                204               0-3.92565686626-5-9.19243739035-5*
*         7.1502606345-5               0
GRID*                205               0-5.75026261596-5-7.92480562005-5*
*                  1.0-4               0
GRID*                206               0-4.63749882763-5-5.39589508774-5*
*        7.12896898878-5               0
GRID*                207               0-6.61267694297-5 -7.4002121984-5*
*        7.12896898878-5               0
GRID*                208               0  -1.822351545-5 -1.7959091247-5*
*                  0.0+0               0
GRID*                209               0 -2.5124312412-5-4.22181024856-5*
*         2.1502606345-5               0
GRID*                210               0-7.08277186889-6 -2.3772141157-5*
*         2.1502606345-5               0
GRID*                211               0-2.44503748362-5-4.56898917176-6*
*        2.08638569733-5               0
GRID*                212               0-4.31105185637-5-2.28879640835-5*
*        2.08638569733-5               0
GRID*                213               0-3.53575711685-5-2.90659285344-5*
*        4.49109755456-5               0
GRID*                214               0-6.12073920873-5-7.91100237319-5*
*         2.1502606345-5               0
GRID*                215               0-4.31658524849-5-6.06640633439-5*
*         2.1502606345-5               0
GRID*                216               0-5.32149576994-5-5.31268162984-5*
*                  0.0+0               0
GRID*                217               0-8.04308046078-5-5.95259124961-5*
*        2.08638569733-5               0
GRID*                218               0-7.37694955791-5-6.74280740826-5*
*        4.49109755456-5               0
GRID*                219               0-6.17706618209-5 -4.1206938525-5*
*        2.08638569733-5               0
GRID*                220               0-6.41008939989-5-3.44437513062-5*
*        7.10767734305-5               0
GRID*                221               0-6.84660452082-5-2.79008723144-5*
*        4.44851426311-5               0
$ ... 2078 like lines cut
PARAM    STR_CID      -2
$--1---><--2---><--3---><--4---><--5---><--6---><--7---><--8---><--9---><--10-->
$$$$$$$$$$$$$$$$$$$$$$$$$$$$$$$$$$$ Material $$$$$$$$$$$$$$$$$$$$$$$$$$$$$$$$$$$
MAT1*                  1          3.0+10 1.1538461538+10           3.0-1*
*                  0.0+0           0.0+0           0.0+0
$--1---><--2---><--3---><--4---><--5---><--6---><--7---><--8---><--9---><--10-->
SPC            1       7       1   0.0+0
SPC            1       7       2   0.0+0
SPC            1       7       3   0.0+0
SPC            1       8       1   0.0+0
SPC            1       8       2   0.0+0
SPC            1       8       3   0.0+0
SPC            1       9       1   0.0+0
SPC            1       9       2   0.0+0
SPC            1       9       3   0.0+0
SPC            1      10       1   0.0+0
SPC            1      10       2   0.0+0
SPC            1      10       3   0.0+0
SPC            1      11       1   0.0+0
SPC            1      11       2   0.0+0
SPC            1      11       3   0.0+0
SPC            1      12       1   0.0+0
SPC            1      12       2   0.0+0
SPC            1      12       3   0.0+0
SPC            1      14       1   0.0+0
SPC            1      14       2   0.0+0
$ ... 163 like lines cut
$--1---><--2---><--3---><--4---><--5---><--6---><--7---><--8---><--9---><--10-->
$$$$$$$$$$$$$$$$$$$$$$$$$$$$$$$$$$$ Default $$$$$$$$$$$$$$$$$$$$$$$$$$$$$$$$$$$$
PSOLID         1       1       0                        
CTETRA         1       1     170     143     118     171     531    1226+
+           1036     540     536     763
CTETRA         2       1     143     173     118     171     577     759+
+           1226     536     755     763
CTETRA         3       1     155     143     118     170     586    1226+
+           1038    1035     531    1036
CTETRA         4       1     143     173     155     118     577     582+
+            586    1226     759    1038
CTETRA         5       1      37     154     177     142     381    1220+
+            603     273     894     602
CTETRA         6       1     154      31     197     125     389    1023+
+           1221     906     909    1024
CTETRA         7       1     177     197      35     176    1222    1015+
+            595     596    1014     592
CTETRA         8       1     142     125     176      33     900    1019+
+            600     255     898     599
CTETRA         9       1     142     154     176     125     894    1227+
+            600     900     906    1019
CTETRA        10       1     154     197     176     125    1221    1014+
+           1227     906    1024    1019
CTETRA        11       1     177     154     176     142    1220    1227+
+            596     602     894     600
CTETRA        12       1     154     197     177     176    1221    1222+
+           1220    1227    1014     596
CTETRA        13       1      32     135     131     144     227     231+
+            230     285     795    1218
CTETRA        14       1     135      34     137     160     235     236+
+            238     797     431    1228
CTETRA        15       1     131     137      30     183     245     249+
+            248    1215    1229     691
CTETRA        16       1     144     160     183      36     801    1230+
+           1211     277     426     682
CTETRA        17       1     144     135     183     160     795    1231+
+           1211     801     797    1230
CTETRA        18       1     135     137     183     160     238    1229+
+           1231     797    1228    1230
CTETRA        19       1     131     135     183     144     231    1231+
+           1215    1218     795    1211
CTETRA        20       1     135     137     131     183     238     245+
+            231    1231    1229    1215
$ ... 1432 like lines cut
$--1---><--2---><--3---><--4---><--5---><--6---><--7---><--8---><--9---><--10-->
$$$$$$$$$$$$$$$$$$$$$$$$$$$$$$$$$$$$ moment $$$$$$$$$$$$$$$$$$$$$$$$$$$$$$$$$$$$
MOMENT         2     201       0   1.0+0   0.0+0   0.0+0   2.0-4
$--1---><--2---><--3---><--4---><--5---><--6---><--7---><--8---><--9---><--10-->
$$$$$$$$$$$$$$$$$$$$$$$$$$$$$$$$$$$$ force $$$$$$$$$$$$$$$$$$$$$$$$$$$$$$$$$$$$$
FORCE          2     201       0   1.0+0   0.0+0   0.0+0   4.0+0
$--1---><--2---><--3---><--4---><--5---><--6---><--7---><--8---><--9---><--10-->
$$$$$$$$$$$$$$$$$$$$$$$$$$$$ node-surface coupling $$$$$$$$$$$$$$$$$$$$$$$$$$$$$
RBE3*                737                             201          123456*
*        4.8632716363-11             123              17 6.1962274996-10*
*                    123             205 6.3015685951-12             123*
*                     80 1.08223628366-9             123             207*
*        2.5040165065-11             123              69 1.10234196663-9*
*                    123             204 9.1116367569-10             123*
*                    218-1.7155010278-11             123              64*
*         7.895463916-10             123             217-6.8115117699-12*
*                    123               1 8.2598712299-10             123*
*                    214 4.6172620411-10             123             223*
*         1.416578766-11             123              15 9.2693311979-10*
*                    123             225 9.2649670563-10             123*
*                    222-9.0656033352-12             123              71*
*        8.7778054041-10             123             312 2.0285978775-11*
*                    123              87 8.5548426474-10             123*
*                    311 4.9643297748-12             123               5*
*         8.423981937-10             123             308 8.2291764942-12*
*                    123              18 4.3055187299-10             123*
*                    317 5.1696727987-13             123             102*
*        8.7252513122-10             123             319 9.2676542231-10*
*                    123             316 5.5916294469-10             123*
$ ... 98 like lines cut
*
$--1---><--2---><--3---><--4---><--5---><--6---><--7---><--8---><--9---><--10-->
LOAD           1   1.0+0   1.0+0       2
ENDDATA 
