$ Generated by Mecway 33
$-----------------------EXECUTIVE CONTROL SECTION-----------------------
SOL 101
CEND
$-------------------------CASE CONTROL SECTION--------------------------
DISPLACEMENT = ALL
SPCFORCES = ALL
MPCFORCES = ALL
STRESS(CORNER) = ALL
SPC = 1
LOAD = 1
BEGIN BULK
$---------------------------BULK DATA SECTION---------------------------
GRID           1       0   0.0+0   0.0+0   0.0+0       0
GRID           2       0   1.0+0   0.0+0   0.0+0       0
GRID           3       0   1.0+0   1.0+0   0.0+0       0
GRID           4       0   0.0+0   1.0+0   0.0+0       0
GRID           5       0   0.0+0   0.0+0   1.0+0       0
GRID           6       0   1.0+0   0.0+0   1.0+0       0
GRID           7       0   1.0+0   1.0+0   1.0+0       0
GRID           8       0   0.0+0   1.0+0   1.0+0       0
GRID           9       0   5.0-1   1.0+0   5.0-1       0
GRID          10       0   2.0+0   0.0+0   0.0+0       0
GRID          11       0   3.0+0   0.0+0   0.0+0       0
GRID          12       0   3.0+0   1.0+0   0.0+0       0
GRID          13       0   2.0+0   1.0+0   0.0+0       0
GRID          14       0   2.0+0   0.0+0   1.0+0       0
GRID          15       0   3.0+0   0.0+0   1.0+0       0
GRID          16       0   3.0+0   1.0+0   1.0+0       0
GRID          17       0   2.0+0   1.0+0   1.0+0       0
PARAM    STR_CID      -2
$--1---><--2---><--3---><--4---><--5---><--6---><--7---><--8---><--9---><--10-->
$$$$$$$$$$$$$$$$$$$$$$$$$$$$$$$$$$$ Material $$$$$$$$$$$$$$$$$$$$$$$$$$$$$$$$$$$
MAT1*                  1          1.2+10 4.28571428571+9           4.0-1*
*                  0.0+0           0.0+0           0.0+0
$--1---><--2---><--3---><--4---><--5---><--6---><--7---><--8---><--9---><--10-->
SPC            1       3       2   0.0+0
SPC            1       4       2   0.0+0
SPC            1       4       1   0.0+0
SPC            1       8       1   0.0+0
SPC            1       8       2   0.0+0
SPC            1       8       3   0.0+0
SPC            1      12       2   0.0+0
SPC            1      13       2   0.0+0
SPC            1      13       1   0.0+0
SPC            1      17       1   0.0+0
SPC            1      17       2   0.0+0
SPC            1      17       3   0.0+0
$--1---><--2---><--3---><--4---><--5---><--6---><--7---><--8---><--9---><--10-->
$$$$$$$$$$$$$$$$$$$$$$$$$$$$$$$$$$$ Default $$$$$$$$$$$$$$$$$$$$$$$$$$$$$$$$$$$$
PSOLID         1       1       0       2               1
CHEXA          1       1       1       2       3       4       5       6+
+              7       8
CHEXA          2       1      10      11      12      13      14      15+
+             16      17
$--1---><--2---><--3---><--4---><--5---><--6---><--7---><--8---><--9---><--10-->
$$$$$$$$$$$$$$$$$$$$$$$$$$$$$$$$$$$$ force $$$$$$$$$$$$$$$$$$$$$$$$$$$$$$$$$$$$$
FORCE          2       9       0   1.0+0  -1.3+7   1.0+7   5.0+6
$--1---><--2---><--3---><--4---><--5---><--6---><--7---><--8---><--9---><--10-->
$$$$$$$$$$$$$$$$$$$$$$$$$$$$$$$$$$$$ force $$$$$$$$$$$$$$$$$$$$$$$$$$$$$$$$$$$$$
FORCE          2      13       0   1.0+0 -3.25+6   2.5+6  1.25+6
FORCE          2      17       0   1.0+0 -3.25+6   2.5+6  1.25+6
FORCE          2      16       0   1.0+0 -3.25+6   2.5+6  1.25+6
FORCE          2      12       0   1.0+0 -3.25+6   2.5+6  1.25+6
$--1---><--2---><--3---><--4---><--5---><--6---><--7---><--8---><--9---><--10-->
$$$$$$$$$$$$$$$$$$$$$$$$$$$$$$$$$$$$ moment $$$$$$$$$$$$$$$$$$$$$$$$$$$$$$$$$$$$
MOMENT         2       9       0   1.0+0   1.0+7   1.1+7   1.3+7
$--1---><--2---><--3---><--4---><--5---><--6---><--7---><--8---><--9---><--10-->
$$$$$$$$$$$$$$$$$$$$$$$$$$$$$$$$$$$$ moment $$$$$$$$$$$$$$$$$$$$$$$$$$$$$$$$$$$$
FORCE          2      12       0   1.0+0 -2.75+6  1.15+7 -2.75+6
FORCE          2      13       0   1.0+0 -2.75+6  -1.5+6  2.75+6
FORCE          2      16       0   1.0+0  2.75+6   1.5+6 -2.75+6
FORCE          2      17       0   1.0+0  2.75+6 -1.15+7  2.75+6
$--1---><--2---><--3---><--4---><--5---><--6---><--7---><--8---><--9---><--10-->
$$$$$$$$$$$$$$$$$$$$$$$$$$$$ node-surface coupling $$$$$$$$$$$$$$$$$$$$$$$$$$$$$
RBE3           3               9  123456   2.5-1     123       3   2.5-1+
+            123       4   2.5-1     123       8   2.5-1     123       7
$--1---><--2---><--3---><--4---><--5---><--6---><--7---><--8---><--9---><--10-->
LOAD           1   1.0+0   1.0+0       2
ENDDATA 
