$ Generated by Mecway 33
$-----------------------EXECUTIVE CONTROL SECTION-----------------------
SOL 101
CEND
$-------------------------CASE CONTROL SECTION--------------------------
DISPLACEMENT = ALL
SPCFORCES = ALL
MPCFORCES = ALL
SPC = 1
LOAD = 1
BEGIN BULK
$---------------------------BULK DATA SECTION---------------------------
GRID           1       0   0.0+0   0.0+0   0.0+0       0
GRID           2       0   1.0+0   0.0+0   0.0+0       0
GRID           3       0   1.0+0   1.0+0   0.0+0       0
GRID           4       0   0.0+0   1.0+0   0.0+0       0
GRID           5       0   0.0+0   0.0+0   1.0+0       0
GRID           6       0   1.0+0   0.0+0   1.0+0       0
GRID           7       0   1.0+0   1.0+0   1.0+0       0
GRID           8       0   0.0+0   1.0+0   1.0+0       0
GRID           9       0   5.0-1   5.0-1   1.0+0       0
GRID          10       0   0.0+0   5.0-1   1.0+0       0
GRID          11       0   5.0-1   0.0+0   0.0+0       0
GRID          12       0   1.0+0   5.0-1   0.0+0       0
GRID          13       0   5.0-1   1.0+0   0.0+0       0
GRID          14       0   0.0+0   5.0-1   0.0+0       0
GRID          15       0   0.0+0   0.0+0   5.0-1       0
GRID          16       0   1.0+0   0.0+0   5.0-1       0
GRID          17       0   1.0+0   1.0+0   5.0-1       0
GRID          18       0   0.0+0   1.0+0   5.0-1       0
GRID          19       0   5.0-1   0.0+0   1.0+0       0
GRID          20       0   1.0+0   5.0-1   1.0+0       0
$ ... 427 like lines cut
PARAM    STR_CID      -2
$--1---><--2---><--3---><--4---><--5---><--6---><--7---><--8---><--9---><--10-->
$$$$$$$$$$$$$$$$$$$$$$$$$$$$$$$$$$$ Material $$$$$$$$$$$$$$$$$$$$$$$$$$$$$$$$$$$
MAT1           1  1.0+11  5.0+10   0.0+0   0.0+0   0.0+0   0.0+0
$--1---><--2---><--3---><--4---><--5---><--6---><--7---><--8---><--9---><--10-->
SPC            1       1       1   0.0+0
SPC            1       1       2   0.0+0
SPC            1       1       3   0.0+0
SPC            1       2       1   0.0+0
SPC            1       2       2   0.0+0
SPC            1       2       3   0.0+0
SPC            1       3       1   0.0+0
SPC            1       3       2   0.0+0
SPC            1       3       3   0.0+0
SPC            1       4       1   0.0+0
SPC            1       4       2   0.0+0
SPC            1       4       3   0.0+0
SPC            1      11       1   0.0+0
SPC            1      11       2   0.0+0
SPC            1      11       3   0.0+0
SPC            1      12       1   0.0+0
SPC            1      12       2   0.0+0
SPC            1      12       3   0.0+0
SPC            1      13       1   0.0+0
SPC            1      13       2   0.0+0
$ ... 199 like lines cut
$--1---><--2---><--3---><--4---><--5---><--6---><--7---><--8---><--9---><--10-->
$$$$$$$$$$$$$$$$$$$$$$$$$$$$$$$$$$$ Default $$$$$$$$$$$$$$$$$$$$$$$$$$$$$$$$$$$$
PSOLID         1       1       0       3               1
CHEXA          1       1       8       4       3       7       5       1+
+              2       6      18      13      17      21      10      14+
+             12      20      15      11      16      19
CHEXA          2       1      97     101     291     102      99     408+
+            441     143     235     292     295     106     122     409+
+            442     144     410     444     447     147
CHEXA          3       1     101      82      84     291     408      85+
+            431     441     234     278     293     292     409     391+
+            432     442     412     435     445     444
CHEXA          4       1     291      84      32      91     441     431+
+             64     436     293     279     280     294     442     432+
+            424     437     445     433     440     446
CHEXA          5       1     102     291      91      87     143     441+
+            436      90     295     294     281     107     144     442+
+            437     124     447     446     438     145
CHEXA          6       1      99     408     441     143      72      74+
+            426      75     410     444     447     147     123     411+
+            443     146     388     427     430     114
CHEXA          7       1     408      85     431     441      74      31+
+             54     426     412     435     445     444     411     392+
+            434     443     387     420     428     427
CHEXA          8       1     441     431      64     436     426      54+
+             23      55     445     433     440     446     443     434+
+            425     439     428     421     422     429
CHEXA          9       1     143     441     436      90      75     426+
+             55      36     447     446     438     145     146     443+
+            439     125     430     429     423     115
CHEXA         10       1      92     103     128      94      95     138+
+            158     153     104     129     132     111     120     139+
+            159     154     142     161     164     157
CHEXA         11       1     103      97     102     128     138      99+
+            143     158     105     106     130     129     139     122+
+            144     159     140     147     162     161
CHEXA         12       1     128     102      87      89     158     143+
+             90     148     130     107     108     131     159     144+
+            124     149     162     145     152     163
CHEXA         13       1      94     128      89      40     153     158+
+            148      66     132     131     109     110     154     159+
+            149     126     164     163     150     155
CHEXA         14       1      95     138     158     153      39      76+
+            133      57     142     161     164     157     121     141+
+            160     156     112     134     137     119
CHEXA         15       1     138      99     143     158      76      72+
+             75     133     140     147     162     161     141     123+
+            146     160     113     114     135     134
CHEXA         16       1     158     143      90     148     133      75+
+             36      56     162     145     152     163     160     146+
+            125     151     135     115     116     136
CHEXA         17       1     153     158     148      66      57     133+
+             56      27     164     163     150     155     156     160+
+            151     127     137     136     117     118
CHEXA         18       1      29      43     187      50      59     197+
+            217     212     165     188     191     172     179     198+
+            218     213     201     220     223     216
CHEXA         19       1      43      38      68     187     197      78+
+            202     217     166     167     189     188     198     181+
+            203     218     199     206     221     220
CHEXA         20       1     187      68      67      71     217     202+
+             98     207     189     168     169     190     218     203+
+            183     208     221     204     211     222
$ ... 135 like lines cut
$--1---><--2---><--3---><--4---><--5---><--6---><--7---><--8---><--9---><--10-->
$$$$$$$$$$$$$$$$$$$$$$$$$$$$$$$$$$$$ moment $$$$$$$$$$$$$$$$$$$$$$$$$$$$$$$$$$$$
MOMENT         2       9       0   1.0+0   0.0+0   1.0+7   0.0+0
$--1---><--2---><--3---><--4---><--5---><--6---><--7---><--8---><--9---><--10-->
$$$$$$$$$$$$$$$$$$$$$$$$$$$$$$$$$$$$ moment $$$$$$$$$$$$$$$$$$$$$$$$$$$$$$$$$$$$
MOMENT         2      42       0   1.0+0   0.0+0   1.0+7   0.0+0
$--1---><--2---><--3---><--4---><--5---><--6---><--7---><--8---><--9---><--10-->
$$$$$$$$$$$$$$$$$$$$$$$$$$$$ node-surface coupling $$$$$$$$$$$$$$$$$$$$$$$$$$$$$
RBE3*                 66                               9          123456*
*       -8.33333333333-2             123               7 3.33333333333-1*
*                    123              21-8.33333333333-2             123*
*                      8 3.33333333333-1             123              10*
*       -8.33333333333-2             123               5 3.33333333333-1*
*                    123              19-8.33333333333-2             123*
*                      6 3.33333333333-1             123              20*
*       
$--1---><--2---><--3---><--4---><--5---><--6---><--7---><--8---><--9---><--10-->
$$$$$$$$$$$$$$$$$$$$$$$$$$$$ node-surface coupling $$$$$$$$$$$$$$$$$$$$$$$$$$$$$
RBE3*                 67                              42          123456*
*       -1.04166666667-2             123              40 4.16666666667-2*
*                    123             110-2.08333333333-2             123*
*                     94 4.16666666667-2             123             154*
*       -2.08333333333-2             123             153 4.16666666667-2*
*                    123             155-1.04166666667-2             123*
*                     66 2.08333333333-2             123             126*
*        4.16666666667-2             123             111-2.08333333333-2*
*                    123              92 4.16666666667-2             123*
*                    120-2.08333333333-2             123              95*
*        4.16666666667-2             123             157 4.16666666667-2*
*                    123             156-1.04166666667-2             123*
*                     57 2.08333333333-2             123             118*
*       -5.20833333333-3             123              27 2.08333333333-2*
*                    123             127 4.16666666667-2             123*
*                    121-1.04166666667-2             123              39*
*        2.08333333333-2             123             119-1.04166666667-2*
*                    123              41 2.08333333333-2             123*
*                    171-1.04166666667-2             123              50*
*        4.16666666667-2             123             213-2.08333333333-2*
*                    123             212 4.16666666667-2             123*
$ ... 28 like lines cut
*        2.08333333333-2             123             351
$--1---><--2---><--3---><--4---><--5---><--6---><--7---><--8---><--9---><--10-->
LOAD           1   1.0+0   1.0+0       2
ENDDATA 
