$ Generated by Mecway 33
$-----------------------EXECUTIVE CONTROL SECTION-----------------------
SOL 101
CEND
$-------------------------CASE CONTROL SECTION--------------------------
DISPLACEMENT = ALL
SPCFORCES = ALL
MPCFORCES = ALL
STRESS(CORNER) = ALL
SPC = 1
LOAD = 1
BEGIN BULK
$---------------------------BULK DATA SECTION---------------------------
GRID*                  1               0 -7.0440851036-4  1.1084773404-3*
*        5.14846828782-4               0
GRID*                  2               0 1.84730900814-4 1.48589462854-3*
*        2.56027783679-4               0
GRID*                  3               0-1.00951946292-4 2.38547428468-3*
*        5.86393873229-4               0
GRID*                  4               0 2.56562274916-4 2.16567293604-3*
*        1.49406724442-3               0
GRID*                  5               0-3.46894289152-4 8.88675991754-4*
*        1.42252019997-3               0
GRID*                  6               0 5.42245122022-4  1.2660932799-3*
*        1.16370115487-3               0
GRID*                  7               0 2.30467225188-4 9.71028045508-4*
*        2.00884943445-3               0
GRID*                  8               0 1.29559148964-3  1.1084773404-3*
*        5.14846828782-4               0
GRID*                  9               0 2.18473090081-3 1.48589462854-3*
*        2.56027783679-4               0
GRID*                 10               0 1.89904805371-3 2.38547428468-3*
*        5.86393873229-4               0
GRID*                 11               0 2.25656227492-3 2.16567293604-3*
*        1.49406724442-3               0
GRID*                 12               0 1.65310571085-3 8.88675991754-4*
*        1.42252019997-3               0
GRID*                 13               0 2.54224512202-3  1.2660932799-3*
*        1.16370115487-3               0
GRID*                 14               0 2.23046722519-3 9.71028045508-4*
*        2.00884943445-3               0
PARAM    STR_CID      -2
$--1---><--2---><--3---><--4---><--5---><--6---><--7---><--8---><--9---><--10-->
$$$$$$$$$$$$$$$$$$$$$$$$$$$$$$$$$$$ Material $$$$$$$$$$$$$$$$$$$$$$$$$$$$$$$$$$$
MAT1*                  1           5.0+9 1.92307692308+9           3.0-1*
*                  0.0+0           0.0+0           0.0+0
$--1---><--2---><--3---><--4---><--5---><--6---><--7---><--8---><--9---><--10-->
$$$$$$$$$$$$$$$$$$$$$$$$$$$$$$$$$ Material(2) $$$$$$$$$$$$$$$$$$$$$$$$$$$$$$$$$$
MAT1*                  2           5.0+9 1.92307692308+9           3.0-1*
*                  0.0+0           0.0+0           0.0+0
$--1---><--2---><--3---><--4---><--5---><--6---><--7---><--8---><--9---><--10-->
SPC            1       1       1   0.0+0
SPC            1       1       2   0.0+0
SPC            1       1       3   0.0+0
SPC            1       2       1   0.0+0
SPC            1       2       2   0.0+0
SPC            1       2       3   0.0+0
SPC            1       3       1   0.0+0
SPC            1       3       2   0.0+0
SPC            1       3       3   0.0+0
SPC            1       8       1   0.0+0
SPC            1       8       2   0.0+0
SPC            1       8       3   0.0+0
SPC            1       9       1   0.0+0
SPC            1       9       2   0.0+0
SPC            1       9       3   0.0+0
SPC            1      10       1   0.0+0
SPC            1      10       2   0.0+0
SPC            1      10       3   0.0+0
$--1---><--2---><--3---><--4---><--5---><--6---><--7---><--8---><--9---><--10-->
$$$$$$$$$$$$$$$$$$$$$$$$$$$$$$$$$$$ Default $$$$$$$$$$$$$$$$$$$$$$$$$$$$$$$$$$$$
PSOLID         1       1       0       2               1
CPENTA         1       1       1       2       3       5       6       4
CPENTA         2       1       8       9      10      12      13      11
$--1---><--2---><--3---><--4---><--5---><--6---><--7---><--8---><--9---><--10-->
$$$$$$$$$$$$$$$$$$$$$$$$$$$$$$$$$$ Component $$$$$$$$$$$$$$$$$$$$$$$$$$$$$$$$$$$
PBAR*                  2               2           1.0-8 8.3333333333-18*
*        8.3333333333-18 1.4083333333-17           0.0+0
CBAR*                  3               2              13              14*
*        6.87372198163-1-7.26305349831-1           0.0+0                
CBAR*                  4               2              11              14*
*        9.99761519308-1-2.18381435099-2           0.0+0                
CBAR*                  5               2              12              14*
*       -1.41205992411-1 9.89980236019-1           0.0+0                
$--1---><--2---><--3---><--4---><--5---><--6---><--7---><--8---><--9---><--10-->
$$$$$$$$$$$$$$$$$$$$$$$$$$$$$$$$$$$$ moment $$$$$$$$$$$$$$$$$$$$$$$$$$$$$$$$$$$$
MOMENT         2       7       0   1.0+0  1.23-3  2.01-3  -3.3-3
$--1---><--2---><--3---><--4---><--5---><--6---><--7---><--8---><--9---><--10-->
$$$$$$$$$$$$$$$$$$$$$$$$$$$$$$$$$$$$ moment $$$$$$$$$$$$$$$$$$$$$$$$$$$$$$$$$$$$
FORCE*                 2              12               0           1.0+0*
*        -9.6337294345-1 9.84805651775-1 1.02177532012+0
FORCE*                 2              13               0           1.0+0*
*       -1.55080630253+0-2.81481581959-1-2.84281217328+0
FORCE*                 2              11               0           1.0+0*
*        2.51417924598+0-7.03324069816-1 1.82103685316+0
$--1---><--2---><--3---><--4---><--5---><--6---><--7---><--8---><--9---><--10-->
$$$$$$$$$$$$$$$$$$$$$$$$$$$$ node-surface coupling $$$$$$$$$$$$$$$$$$$$$$$$$$$$$
RBE3*                  6                               7          123456*
*        1.66666666667-7             123               5 1.66666666667-7*
*                    123               6 1.66666666667-7             123*
*                      4
$--1---><--2---><--3---><--4---><--5---><--6---><--7---><--8---><--9---><--10-->
LOAD           1   1.0+0   1.0+0       2
ENDDATA 
