$ Generated by Mecway 33
$-----------------------EXECUTIVE CONTROL SECTION-----------------------
SOL 105
CEND
$-------------------------CASE CONTROL SECTION--------------------------
DISPLACEMENT = ALL
SPC = 1
SUBCASE 1
LOAD = 1
SUBCASE 2
METHOD = 1
BEGIN BULK
$---------------------------BULK DATA SECTION---------------------------
GRID           1       0   0.0+0   0.0+0   0.0+0       0
GRID           2       0   0.0+0  6.25-1   0.0+0       0
GRID           3       0   5.0-2  6.25-1   0.0+0       0
GRID           4       0   0.0+0   1.0+0   0.0+0       0
GRID           5       0   5.0-2   0.0+0   0.0+0       0
GRID           6       0   0.0+0  3.75-1   0.0+0       0
GRID           7       0   5.0-2   2.5-1   0.0+0       0
GRID           8       0   0.0+0   5.0-1   0.0+0       0
GRID           9       0   0.0+0  1.25-1   0.0+0       0
GRID          10       0   5.0-2  1.25-1   0.0+0       0
GRID          11       0   5.0-2  3.75-1   0.0+0       0
GRID          12       0   5.0-2   1.0+0   0.0+0       0
GRID          13       0   0.0+0   7.5-1   0.0+0       0
GRID          14       0   0.0+0  8.75-1   0.0+0       0
GRID          15       0   5.0-2   5.0-1   0.0+0       0
GRID          16       0   5.0-2  8.75-1   0.0+0       0
GRID          17       0   0.0+0   2.5-1   0.0+0       0
GRID          18       0   5.0-2   7.5-1   0.0+0       0
GRID          19       0   2.5-2   0.0+0   0.0+0       0
GRID          20       0   5.0-2  6.25-2   0.0+0       0
$ ... 31 like lines cut
PARAM    STR_CID      -2
$--1---><--2---><--3---><--4---><--5---><--6---><--7---><--8---><--9---><--10-->
$$$$$$$$$$$$$$$$$$$$$$$$$$$$$$$$$$$ Material $$$$$$$$$$$$$$$$$$$$$$$$$$$$$$$$$$$
MAT8           1  5.0+10  1.0+11   0.0+0  2.5+10  2.5+10  2.5+10   0.0+0+
+          0.0+0   0.0+0   0.0+0
MAT8           2  2.0+11  2.0+11   0.0+0  1.0+11  1.0+11  1.0+11   0.0+0+
+          0.0+0   0.0+0   0.0+0
MAT8           3  5.0+10  1.0+11   0.0+0  2.5+10  2.5+10  2.5+10   0.0+0+
+          0.0+0   0.0+0   0.0+0
$--1---><--2---><--3---><--4---><--5---><--6---><--7---><--8---><--9---><--10-->
SPC            1       1       1   0.0+0
SPC            1       1       3   0.0+0
SPC            1       1       2   0.0+0
SPC            1       1       4   0.0+0
SPC            1       1       6   0.0+0
SPC            1       5       2   0.0+0
SPC            1       5       3   0.0+0
SPC            1       5       4   0.0+0
SPC            1       5       6   0.0+0
SPC            1      19       2   0.0+0
SPC            1      19       3   0.0+0
SPC            1      19       4   0.0+0
SPC            1      19       6   0.0+0
$--1---><--2---><--3---><--4---><--5---><--6---><--7---><--8---><--9---><--10-->
$$$$$$$$$$$$$$$$$$$$$$$$$$$$$$$$$$$ Default $$$$$$$$$$$$$$$$$$$$$$$$$$$$$$$$$$$$
PCOMP          1                                   0.0+0             SYM+
+              1   5.0-3   0.0+0               2   5.0-3   0.0+0        
CQUAD4         1       1      44      18      41      47  -9.0+1   0.0+0
CQUAD4         2       1      44      16      45      47  -9.0+1   0.0+0
CQUAD4         3       1      47      45      14      46  -9.0+1   0.0+0
CQUAD4         4       1      41      47      46      13  -9.0+1   0.0+0
CQUAD4         5       1      16      48      51      45  -9.0+1   0.0+0
CQUAD4         6       1      48      12      49      51  -9.0+1   0.0+0
CQUAD4         7       1      51      49       4      50  -9.0+1   0.0+0
CQUAD4         8       1      45      51      50      14  -9.0+1   0.0+0
CQUAD4         9       1       1      19      23      22   0.0+0   0.0+0
CQUAD4        10       1      19       5      20      23   0.0+0   0.0+0
CQUAD4        11       1      23      20      10      21   0.0+0   0.0+0
CQUAD4        12       1      22      23      21       9   0.0+0   0.0+0
CQUAD4        13       1      10      24      27      21  -9.0+1   0.0+0
CQUAD4        14       1      24       7      25      27  -9.0+1   0.0+0
CQUAD4        15       1      27      25      17      26  -9.0+1   0.0+0
CQUAD4        16       1      21      27      26       9  -9.0+1   0.0+0
CQUAD4        17       1       7      28      31      25  -9.0+1   0.0+0
CQUAD4        18       1      11      28      31      29  -9.0+1   0.0+0
CQUAD4        19       1      29      31      30       6  -9.0+1   0.0+0
CQUAD4        20       1      25      31      30      17  -9.0+1   0.0+0
$ ... 12 like lines cut
$--1---><--2---><--3---><--4---><--5---><--6---><--7---><--8---><--9---><--10-->
$$$$$$$$$$$$$$$$$$$$$$$$$$$$$$$$$$$$ force $$$$$$$$$$$$$$$$$$$$$$$$$$$$$$$$$$$$$
FORCE          2      12       0   1.0+0   0.0+0  -2.5-1   0.0+0
FORCE          2      49       0   1.0+0   0.0+0  -5.0-1   0.0+0
FORCE          2       4       0   1.0+0   0.0+0  -2.5-1   0.0+0
$--1---><--2---><--3---><--4---><--5---><--6---><--7---><--8---><--9---><--10-->
EIGRL          1                       3       0           1.0+3    MASS
LOAD           1   1.0+0   1.0+0       2
ENDDATA 
