$ Generated by Mecway 33
$-----------------------EXECUTIVE CONTROL SECTION-----------------------
SOL 105
CEND
$-------------------------CASE CONTROL SECTION--------------------------
DISPLACEMENT = ALL
SPC = 1
SUBCASE 1
LOAD = 1
SUBCASE 2
METHOD = 1
BEGIN BULK
$---------------------------BULK DATA SECTION---------------------------
GRID           1       0   0.0+0   0.0+0   0.0+0       0
GRID           2       0   0.0+0  6.25-1   0.0+0       0
GRID           3       0   5.0-2  6.25-1   0.0+0       0
GRID           4       0   0.0+0   1.0+0   0.0+0       0
GRID           5       0   5.0-2   0.0+0   0.0+0       0
GRID           6       0   0.0+0  3.75-1   0.0+0       0
GRID           7       0   5.0-2   2.5-1   0.0+0       0
GRID           8       0   0.0+0   5.0-1   0.0+0       0
GRID           9       0   0.0+0  1.25-1   0.0+0       0
GRID          10       0   5.0-2  1.25-1   0.0+0       0
GRID          11       0   5.0-2  3.75-1   0.0+0       0
GRID          12       0   5.0-2   1.0+0   0.0+0       0
GRID          13       0   0.0+0   7.5-1   0.0+0       0
GRID          14       0   0.0+0  8.75-1   0.0+0       0
GRID          15       0   5.0-2   5.0-1   0.0+0       0
GRID          16       0   5.0-2  8.75-1   0.0+0       0
GRID          17       0   0.0+0   2.5-1   0.0+0       0
GRID          18       0   5.0-2   7.5-1   0.0+0       0
PARAM    STR_CID      -2
$--1---><--2---><--3---><--4---><--5---><--6---><--7---><--8---><--9---><--10-->
$$$$$$$$$$$$$$$$$$$$$$$$$$$$$$$$$$$ Material $$$$$$$$$$$$$$$$$$$$$$$$$$$$$$$$$$$
MAT8           1  5.0+10  5.0+10   0.0+0  2.5+10  2.5+10  2.5+10   0.0+0+
+          0.0+0   0.0+0   0.0+0
MAT8           2  5.0+10  5.0+10   0.0+0  2.5+10  2.5+10  2.5+10   0.0+0+
+          0.0+0   0.0+0   0.0+0
MAT8           3  5.0+10  5.0+10   0.0+0  2.5+10  2.5+10  2.5+10   0.0+0+
+          0.0+0   0.0+0   0.0+0
$--1---><--2---><--3---><--4---><--5---><--6---><--7---><--8---><--9---><--10-->
SPC            1       1       1   0.0+0
SPC            1       1       3   0.0+0
SPC            1       1       2   0.0+0
SPC            1       1       4   0.0+0
SPC            1       1       6   0.0+0
SPC            1       5       2   0.0+0
SPC            1       5       3   0.0+0
SPC            1       5       4   0.0+0
SPC            1       5       6   0.0+0
$--1---><--2---><--3---><--4---><--5---><--6---><--7---><--8---><--9---><--10-->
$$$$$$$$$$$$$$$$$$$$$$$$$$$$$$$$$$$ Default $$$$$$$$$$$$$$$$$$$$$$$$$$$$$$$$$$$$
PCOMP          1                                   0.0+0             SYM+
+              1   5.0-3   0.0+0               2   5.0-3   0.0+0        
CQUAD4         1       1       1       5      10       9   0.0+0   0.0+0
CQUAD4         2       1      10       7      17       9  -9.0+1   0.0+0
CQUAD4         3       1       7      11       6      17  -9.0+1   0.0+0
CQUAD4         4       1      11      15       8       6  -9.0+1   0.0+0
CQUAD4         5       1      15       3       2       8  -9.0+1   0.0+0
CQUAD4         6       1       3      18      13       2  -9.0+1   0.0+0
CQUAD4         7       1      18      16      14      13  -9.0+1   0.0+0
CQUAD4         8       1      16      12       4      14  -9.0+1   0.0+0
$--1---><--2---><--3---><--4---><--5---><--6---><--7---><--8---><--9---><--10-->
$$$$$$$$$$$$$$$$$$$$$$$$$$$$$$$$$$$$ force $$$$$$$$$$$$$$$$$$$$$$$$$$$$$$$$$$$$$
FORCE          2      12       0   1.0+0   0.0+0  -5.0-1   0.0+0
FORCE          2       4       0   1.0+0   0.0+0  -5.0-1   0.0+0
$--1---><--2---><--3---><--4---><--5---><--6---><--7---><--8---><--9---><--10-->
EIGRL          1                       3       0           1.0+3    MASS
LOAD           1   1.0+0   1.0+0       2
ENDDATA 
