$-----------------------EXECUTIVE CONTROL SECTION-----------------------
SOL 105
CEND
$-------------------------CASE CONTROL SECTION--------------------------
DISPLACEMENT = ALL
SPC = 1
SUBCASE 1
LOAD = 1
SUBCASE 2
STATSUB = 1
METHOD = 1
BEGIN BULK
$---------------------------BULK DATA SECTION---------------------------
GRID           1       0   2.5+1   0.0+0  -1.2+1       0
GRID           2       0     0.0   0.0+0  -1.2+1       0
PARAM    STR_CID      -2
MAT1           1  2.0+11  1.0+11   0.0+0   0.0+0   0.0+0   0.0+0
SPC            1       1       1   0.0+0
SPC            1       1       2   0.0+0
SPC            1       1       3   0.0+0
SPC            1       1       4   0.0+0
SPC            1       1       5   0.0+0
SPC            1       1       6   0.0+0
PBAR*                  1               1           3.0-2         5.625-5*
*                  1.0-4 1.21490661621-4           0.0+0
CBAR           1       1       2       1   0.0+0   1.0+0   0.0+0        
FORCE          2       2       0   1.0+0   3.0+1   0.0+0   0.0+0
EIGRL          1                       2       0           0.0+0    MASS
LOAD           1   1.0+0   1.0+0       2
ENDDATA 
