SOL 101
CEND
SPC = 1
LOAD = 1
STRAIN(CORNER) = ALL
FORCE(CENTER) = ALL
BEGIN BULK
GRID           1       0   0.0+0   0.0+0   0.0+0       0
GRID           2       0   1.0+0   0.0+0   0.0+0       0
GRID           3       0   1.0+0   1.0+0   0.0+0       0
GRID           4       0   0.0+0   1.0+0   0.0+0       0
MAT1           1  2.0+11  1.0+11   0.0+0   0.0+0   0.0+0   0.0+0
SPC            1       1  123456   0.0+0
SPC            1       2  123456   0.0+0
PSHELL         1       1   1.0-1       1               1           0.0+0
CQUAD4         1       1       1       2       3       4   0.0+0   0.0+0
FORCE          2       3       0   1.0+0   0.0+0   5.0+2   0.0+0
FORCE          2       4       0   1.0+0   0.0+0   5.0+2   0.0+0
LOAD           1   1.0+0   1.0+0       2
ENDDATA 
