SOL 101
CEND
FORCE = ALL
LOAD = 1
BEGIN BULK
GRID           1       0   1.0+0   0.0+0   0.0+0       0
GRID           2       0   0.0+0   0.0+0   0.0+0       0  123456
MAT1           1   1.0+9   5.0+8   0.0+0   0.0+0   0.0+0   0.0+0
PBAR           1       1   9.0-4  6.75-8  6.75-8   1.0-7   0.0+0
CBAR           1       1       2       1   0.0+0   1.0+0   0.0+0        +
+                                  3.0-1                   3.0-1
FORCE          1       1       0   1.0+0   1.0+0   0.0+0   0.0+0
ENDDATA 
