$ Generated by Mecway 29
$-----------------------EXECUTIVE CONTROL SECTION-----------------------
SOL 101
CEND
$-------------------------CASE CONTROL SECTION--------------------------
DISPLACEMENT = ALL
STRESS(CORNER) = ALL
FORCE = ALL
SPC = 1
LOAD = 1
BEGIN BULK
$---------------------------BULK DATA SECTION---------------------------
GRID*                  1               0          3.0+00          5.0-01*       
*                 0.0+00               0
GRID*                  2               0          2.0+00          0.0+00*       
*                 0.0+00               0
GRID*                  3               0          3.0+00          1.0+00*       
*                 0.0+00               0
GRID*                  4               0          3.0+00          0.0+00*       
*                 0.0+00               0
GRID*                  5               0          2.5+00          5.0-01*       
*                 0.0+00               0
GRID*                  6               0          2.0+00          1.0+00*       
*                 0.0+00               0
GRID*                  7               0          2.5+00          1.0+00*       
*                 0.0+00               0
GRID*                  8               0          2.0+00          5.0-01*       
*                 0.0+00               0
GRID*                  9               0          2.5+00          0.0+00*       
*                 0.0+00               0
GRID*                 10               0         -5.0-01          1.0+00*       
*                 0.0+00               0
GRID*                 11               0          1.0+00          0.0+00*       
*                 0.0+00               0
GRID*                 12               0         -1.0+00          0.0+00*       
*                 0.0+00               0
GRID*                 13               0         -1.0+00          5.0-01*       
*                 0.0+00               0
GRID*                 14               0          1.5+00          5.0-01*       
*                 0.0+00               0
GRID*                 15               0          1.0+00          1.0+00*       
*                 0.0+00               0
GRID*                 16               0          1.5+00          1.0+00*       
*                 0.0+00               0
GRID*                 17               0          1.0+00          5.0-01*       
*                 0.0+00               0
GRID*                 18               0          1.5+00          0.0+00*       
*                 0.0+00               0
GRID*                 19               0         -5.0-01          0.0+00*       
*                 0.0+00               0
GRID*                 20               0          0.0+00          0.0+00*       
*                 0.0+00               0
$ ... 130 like lines cut
$--1---><------2-------><------3-------><------4-------><------5-------><--6--->
$$$$$$$$$$$$$$$$$$$$$$$$$$$$$$$$$$$ Material $$$$$$$$$$$$$$$$$$$$$$$$$$$$$$$$$$$
MAT1*                  1          2.0+11          1.0+11          0.0+00*       
*                 0.0+00          0.0+00          0.0+00
$--1---><------2-------><------3-------><------4-------><------5-------><--6--->
SPC*                   1               1               1          0.0+00*       
*                                                                       
SPC*                   1               1               2          0.0+00*       
*                                                                       
SPC*                   1               1               3          0.0+00*       
*                                                                       
SPC*                   1               1               4          0.0+00*       
*                                                                       
SPC*                   1               1               5          0.0+00*       
*                                                                       
SPC*                   1               1               6          0.0+00*       
*                                                                       
SPC*                   1               3               1          0.0+00*       
*                                                                       
SPC*                   1               3               2          0.0+00*       
*                                                                       
SPC*                   1               3               3          0.0+00*       
*                                                                       
SPC*                   1               3               4          0.0+00*       
*                                                                       
SPC*                   1               3               5          0.0+00*       
*                                                                       
SPC*                   1               3               6          0.0+00*       
*                                                                       
SPC*                   1               4               1          0.0+00*       
*                                                                       
SPC*                   1               4               2          0.0+00*       
*                                                                       
SPC*                   1               4               3          0.0+00*       
*                                                                       
SPC*                   1               4               4          0.0+00*       
*                                                                       
SPC*                   1               4               5          0.0+00*       
*                                                                       
SPC*                   1               4               6          0.0+00*       
*                                                                       
SPC*                   1              30               1          0.0+00*       
*                                                                       
SPC*                   1              30               2          0.0+00*       
*                                                                       
SPC*                   1              30               3          0.0+00*       
*                                                                       
SPC*                   1              30               4          0.0+00*       
*                                                                       
SPC*                   1              30               5          0.0+00*       
*                                                                       
SPC*                   1              30               6          0.0+00*       
*                                                                       
SPC*                   1              42               1          0.0+00*       
*                                                                       
SPC*                   1              42               2          0.0+00*       
*                                                                       
SPC*                   1              42               3          0.0+00*       
*                                                                       
SPC*                   1              42               4          0.0+00*       
*                                                                       
SPC*                   1              42               5          0.0+00*       
*                                                                       
SPC*                   1              42               6          0.0+00*       
*                                                                       
$--1---><------2-------><------3-------><------4-------><------5-------><--6--->
$$$$$$$$$$$$$$$$$$$$$$$$$$$$$$$$$$$ Default $$$$$$$$$$$$$$$$$$$$$$$$$$$$$$$$$$$$
PSHELL*                1               1          5.0-01               1*       
*                                      1                          0.0+00
CQUAD4*                1               1              10              72*       
*                     75              74          0.0+00          0.0+00
CQUAD4*                2               1              72              21*       
*                     73              75          0.0+00          0.0+00
CQUAD4*                3               1              75              73*       
*                     26              62          0.0+00          0.0+00
CQUAD4*                4               1              74              75*       
*                     62              24          0.0+00          0.0+00
CQUAD4*                5               1              22              76*       
*                     79              78          0.0+00          0.0+00
CQUAD4*                6               1              76              13*       
*                     77              79          0.0+00          0.0+00
CQUAD4*                7               1              79              77*       
*                     21              72          0.0+00          0.0+00
CQUAD4*                8               1              78              79*       
*                     72              10          0.0+00          0.0+00
CQUAD4*                9               1              13              80*       
*                     83              77          0.0+00          0.0+00
CQUAD4*               10               1              80              12*       
*                     81              83          0.0+00          0.0+00
CQUAD4*               11               1              83              81*       
*                     19              82          0.0+00          0.0+00
CQUAD4*               12               1              77              83*       
*                     82              21          0.0+00          0.0+00
CQUAD4*               13               1              21              82*       
*                     85              73          0.0+00          0.0+00
CQUAD4*               14               1              82              19*       
*                     84              85          0.0+00          0.0+00
CQUAD4*               15               1              85              84*       
*                     20              66          0.0+00          0.0+00
CQUAD4*               16               1              73              85*       
*                     66              26          0.0+00          0.0+00
CQUAD4*               17               1               7              28*       
*                     32              31          0.0+00          0.0+00
CQUAD4*               18               1              28               5*       
*                     29              32          0.0+00          0.0+00
CQUAD4*               19               1              32              29*       
*                      1              30          0.0+00          0.0+00
CQUAD4*               20               1              31              32*       
$ ... 89 like lines cut
$--1---><------2-------><------3-------><------4-------><------5-------><--6--->
$$$$$$$$$$$$$$$$$$$$$$$$$$$$$$$$$$$$ force $$$$$$$$$$$$$$$$$$$$$$$$$$$$$$$$$$$$$
FORCE*                 1              22               0          1.0+00*       
*                 0.0+00          0.0+00         1.25+02
FORCE*                 1              76               0          1.0+00*       
*                 0.0+00          0.0+00          2.5+02
FORCE*                 1              13               0          1.0+00*       
*                 0.0+00          0.0+00          2.5+02
FORCE*                 1              80               0          1.0+00*       
*                 0.0+00          0.0+00          2.5+02
FORCE*                 1              12               0          1.0+00*       
*                 0.0+00          0.0+00         1.25+02
$--1---><------2-------><------3-------><------4-------><------5-------><--6--->
ENDDATA
