$ Generated by Mecway 29
$-----------------------EXECUTIVE CONTROL SECTION-----------------------
SOL 101
CEND
$-------------------------CASE CONTROL SECTION--------------------------
DISPLACEMENT = ALL
STRESS(CORNER) = ALL
FORCE = ALL
SPC = 1
LOAD = 1
BEGIN BULK
$---------------------------BULK DATA SECTION---------------------------
GRID*                  1               0          0.0+00          0.0+00*       
*                 0.0+00               0
GRID*                  2               0          1.0+00          0.0+00*       
*                 0.0+00               0
GRID*                  3               0          1.0+00          1.0+00*       
*                 0.0+00               0
GRID*                  4               0 1.3909354806-01 9.1226834059-01*       
*       -1.9826844335-01               0
GRID*                  5               0 4.8875305057-01  8.277323097-02*       
*       -1.2771597132-02               0
GRID*                  6               0 1.0854320526+00 5.0594311953-01*       
*          1.40341511-02               0
GRID*                  7               0 5.7975911349-01 1.0603346825+00*       
*       -1.3272947352-01               0
GRID*                  8               0 1.8130968511-01 5.2292984724-01*       
*       -1.1121491343-01               0
$DEBUG*               250               1                                *       
$*                                                                       
$--1---><------2-------><------3-------><------4-------><------5-------><--6--->
$$$$$$$$$$$$$$$$$$$$$$$$$$$$$$$$$$$ Material $$$$$$$$$$$$$$$$$$$$$$$$$$$$$$$$$$$
MAT1*                  1          2.0+11          1.0+11          0.0+00*       
*                 0.0+00          0.0+00          0.0+00
$--1---><------2-------><------3-------><------4-------><------5-------><--6--->
SPC*                   1               2               1          0.0+00*       
*                                                                       
SPC*                   1               2               2          0.0+00*       
*                                                                       
SPC*                   1               2               3          0.0+00*       
*                                                                       
SPC*                   1               2               4          0.0+00*       
*                                                                       
SPC*                   1               2               5          0.0+00*       
*                                                                       
SPC*                   1               2               6          0.0+00*       
*                                                                       
SPC*                   1               3               1          0.0+00*       
*                                                                       
SPC*                   1               3               2          0.0+00*       
*                                                                       
SPC*                   1               3               3          0.0+00*       
*                                                                       
SPC*                   1               3               4          0.0+00*       
*                                                                       
SPC*                   1               3               5          0.0+00*       
*                                                                       
SPC*                   1               3               6          0.0+00*       
*                                                                       
SPC*                   1               6               1          0.0+00*       
*                                                                       
SPC*                   1               6               2          0.0+00*       
*                                                                       
SPC*                   1               6               3          0.0+00*       
*                                                                       
SPC*                   1               6               4          0.0+00*       
*                                                                       
SPC*                   1               6               5          0.0+00*       
*                                                                       
SPC*                   1               6               6          0.0+00*       
*                                                                       
$--1---><------2-------><------3-------><------4-------><------5-------><--6--->
$$$$$$$$$$$$$$$$$$$$$$$$$$$$$$$$$$$ Default $$$$$$$$$$$$$$$$$$$$$$$$$$$$$$$$$$$$
PSHELL*                1               1          1.0-01               1*       
*                                      1                          0.0+00
CQUAD8*                1               1               1               2*       
*                      3               4               5               6*       
*                      7               8                                *       
*                                                 0.0+00          0.0+00
$--1---><------2-------><------3-------><------4-------><------5-------><--6--->
$$$$$$$$$$$$$$$$$$$$$$$$$$$$$$$$$$$$ force $$$$$$$$$$$$$$$$$$$$$$$$$$$$$$$$$$$$$
FORCE*                 1               1               0          1.0+00*       
*         4.495507706+02  2.247753853+02  2.247753853+01
MOMENT*                1               1               0          1.0+00*       
*       -5.3341805835-04 1.0966076385-03-2.9771521745-04
FORCE*                 1               4               0          1.0+00*       
*        2.3329196302+02 1.1664598151+02 1.1664598151+01
MOMENT*                1               4               0          1.0+00*       
*        2.9290595514-02-6.0148584817-02 1.5673937883-02
FORCE*                 1               8               0          1.0+00*       
*        1.3171572664+03 6.5857863319+02 6.5857863319+01
MOMENT*                1               8               0          1.0+00*       
*        4.7721637784-02-9.8235159857-02 2.7918842882-02
$--1---><------2-------><------3-------><------4-------><------5-------><--6--->
ENDDATA
