SOL 101
CEND
DISPLACEMENT = ALL
SPCFORCES = ALL
SPC = 1
LOAD = 1
BEGIN BULK
GRID           1       0   0.0+0   0.0+0   0.0+0       0
GRID           2       0   5.0-1   0.0+0   0.0+0       0
GRID           3       0   5.0-1   1.0+0   0.0+0       0
GRID           4       0   0.0+0   1.0+0   0.0+0       0
GRID           5       0   1.0+0   0.0+0   0.0+0       0
GRID           6       0   1.0+0   1.0+0   0.0+0       0
MAT1           1  2.0+11  1.0+11   0.0+0   0.0+0   0.0+0   0.0+0
SPC            1       1     123   0.0+0
SPC            1       4      13   0.0+0
SPC            1       5       3   0.0+0
SPC            1       6       3   0.0+0
PSHELL         1       1   1.0-2       1               1           0.0+0
CQUAD4         1       1       1       2       3       4   0.0+0   0.0+0
CQUAD4         2       1       2       5       6       3   0.0+0   0.0+0
PLOAD4        22       2  -3.0+3
PLOAD2        22  -3.0+3       1
LOAD           1   1.5+0   7.0+0      22
ENDDATA 