$ Generated by Mecway 33
$-----------------------EXECUTIVE CONTROL SECTION-----------------------
SOL 101
CEND
$-------------------------CASE CONTROL SECTION--------------------------
DISPLACEMENT = ALL
SPC = 1
LOAD = 1
STRAIN = ALL
STRESS = ALL
BEGIN BULK
$---------------------------BULK DATA SECTION---------------------------
GRID           1       0   0.0+0   0.0+0   0.0+0       0
GRID           2       0   1.5+0   0.0+0   0.0+0       0
GRID           3       0   0.0+0   7.5-1   0.0+0       0
GRID           4       0   7.5-1   7.5-1   0.0+0       0
GRID           5       0   7.5-1   0.0+0   0.0+0       0
GRID           6       0   1.5+0   7.5-1   0.0+0       0
GRID           7       0   7.5-1  3.75-1   0.0+0       0
GRID           8       0  3.75-1   7.5-1   0.0+0       0
GRID           9       0   0.0+0  3.75-1   0.0+0       0
GRID          10       0   1.5+0  3.75-1   0.0+0       0
GRID          11       0 1.125+0   7.5-1   0.0+0       0
GRID          12       0 1.125+0   0.0+0   0.0+0       0
GRID          13       0  3.75-1   0.0+0   0.0+0       0
$--1---><--2---><--3---><--4---><--5---><--6---><--7---><--8---><--9---><--10-->
$$$$$$$$$$$$$$$$$$$$$$$$$$$$$$$$$$$ Material $$$$$$$$$$$$$$$$$$$$$$$$$$$$$$$$$$$
MAT1           1  2.0+11  1.0+11   0.0+0   0.0+0   0.0+0   0.0+0
$--1---><--2---><--3---><--4---><--5---><--6---><--7---><--8---><--9---><--10-->
SPC            1       1       2   0.0+0
SPC            1       1       1   0.0+0
SPC            1       1       3   0.0+0
SPC            1       1       5   0.0+0
SPC            1       3       1   0.0+0
SPC            1       3       3   0.0+0
SPC            1       3       5   0.0+0
SPC            1       9       1   0.0+0
SPC            1       9       5   0.0+0
$--1---><--2---><--3---><--4---><--5---><--6---><--7---><--8---><--9---><--10-->
$$$$$$$$$$$$$$$$$$$$$$$$$$$$$$$$$$$ Default $$$$$$$$$$$$$$$$$$$$$$$$$$$$$$$$$$$$
PSHELL         1       1   4.0-2       1               1           0.0+0
CQUAD8         1       1       2       6       4       5      10      11+
+              7      12                                       2   0.0+0
CORD2R         2       0   0.0+0   0.0+0   0.0+0  -1.0+0   0.0+0   0.0+0+
+          0.0+0   1.0+0   0.0+0
CQUAD8         2       1       1       5       4       3      13       7+
+              8       9                                       3   0.0+0
CORD2R         3       0   0.0+0   0.0+0   0.0+0   0.0+0   1.0+0   0.0+0+
+          1.0+0   0.0+0   0.0+0
$--1---><--2---><--3---><--4---><--5---><--6---><--7---><--8---><--9---><--10-->
$$$$$$$$$$$$$$$$$$$$$$$$$$$$$$$$$$$$ moment $$$$$$$$$$$$$$$$$$$$$$$$$$$$$$$$$$$$
MOMENT*                2               6               0           1.0+0*
*                  0.0+0-3.33333333333+3           0.0+0
$--1---><--2---><--3---><--4---><--5---><--6---><--7---><--8---><--9---><--10-->
$$$$$$$$$$$$$$$$$$$$$$$$$$$$$$$$$$$$ moment $$$$$$$$$$$$$$$$$$$$$$$$$$$$$$$$$$$$
MOMENT*                2               2               0           1.0+0*
*                  0.0+0-3.33333333333+3           0.0+0
$--1---><--2---><--3---><--4---><--5---><--6---><--7---><--8---><--9---><--10-->
$$$$$$$$$$$$$$$$$$$$$$$$$$$$$$$$$$$$ force $$$$$$$$$$$$$$$$$$$$$$$$$$$$$$$$$$$$$
FORCE          2       2       0   1.0+0   2.5+5   0.0+0   0.0+0
FORCE          2      10       0   1.0+0   1.0+6   0.0+0   0.0+0
FORCE          2       6       0   1.0+0   2.5+5   0.0+0   0.0+0
$--1---><--2---><--3---><--4---><--5---><--6---><--7---><--8---><--9---><--10-->
$$$$$$$$$$$$$$$$$$$$$$$$$$$$$$$$$$$$ moment $$$$$$$$$$$$$$$$$$$$$$$$$$$$$$$$$$$$
MOMENT*                2              10               0           1.0+0*
*                  0.0+0-1.33333333333+4           0.0+0
$--1---><--2---><--3---><--4---><--5---><--6---><--7---><--8---><--9---><--10-->
LOAD           1   1.0+0   1.0+0       2
ENDDATA 
