$ Generated by Mecway 33
$-----------------------EXECUTIVE CONTROL SECTION-----------------------
SOL 101
CEND
$-------------------------CASE CONTROL SECTION--------------------------
DISPLACEMENT = ALL
SPC = 1
LOAD = 1
STRAIN(CORNER) = ALL
BEGIN BULK
$---------------------------BULK DATA SECTION---------------------------
GRID           1       0   0.0+0   0.0+0   0.0+0       0
GRID           2       0   1.5+0   0.0+0   0.0+0       0
GRID           3       0   0.0+0   7.5-1   0.0+0       0
GRID           4       0   7.5-1   7.5-1   0.0+0       0
GRID           5       0   7.5-1   0.0+0   0.0+0       0
GRID           6       0   1.5+0   7.5-1   0.0+0       0
GRID           7       0   0.0+0   1.0+0   0.0+0       0
GRID           8       0   1.5+0   1.0+0   0.0+0       0
GRID           9       0   0.0+0  1.75+0   0.0+0       0
GRID          10       0   7.5-1  1.75+0   0.0+0       0
GRID          11       0   7.5-1   1.0+0   0.0+0       0
GRID          12       0   1.5+0  1.75+0   0.0+0       0
$--1---><--2---><--3---><--4---><--5---><--6---><--7---><--8---><--9---><--10-->
$$$$$$$$$$$$$$$$$$$$$$$$$$$$$$$$$$$ Material $$$$$$$$$$$$$$$$$$$$$$$$$$$$$$$$$$$
MAT1           1  2.0+11  1.0+11   0.0+0   0.0+0   0.0+0   0.0+0
$--1---><--2---><--3---><--4---><--5---><--6---><--7---><--8---><--9---><--10-->
SPC            1       1       2   0.0+0
SPC            1       1       1   0.0+0
SPC            1       1       3   0.0+0
SPC            1       1       5   0.0+0
SPC            1       3       1   0.0+0
SPC            1       3       3   0.0+0
SPC            1       3       5   0.0+0
SPC            1       7       2   0.0+0
SPC            1       7       1   0.0+0
SPC            1       7       3   0.0+0
SPC            1       7       5   0.0+0
SPC            1       9       1   0.0+0
SPC            1       9       3   0.0+0
SPC            1       9       5   0.0+0
$--1---><--2---><--3---><--4---><--5---><--6---><--7---><--8---><--9---><--10-->
$$$$$$$$$$$$$$$$$$$$$$$$$$$$$$$$$$$ Default $$$$$$$$$$$$$$$$$$$$$$$$$$$$$$$$$$$$
PSHELL         1       1   4.0-2       1               1           0.0+0
CQUAD4         1       1       2       6       4       5   0.0+0   0.0+0
CQUAD4         2       1       1       5       4       3   0.0+0   0.0+0
PSHELL         2       1   4.0-2       1               1           0.0+0
CTRIA3         3       2      11      12      10   0.0+0   0.0+0
CTRIA3         4       2       7      10       9   0.0+0   0.0+0
CTRIA3         5       2      11       8      12   0.0+0   0.0+0
CTRIA3         6       2       7      11      10   0.0+0   0.0+0
$--1---><--2---><--3---><--4---><--5---><--6---><--7---><--8---><--9---><--10-->
$$$$$$$$$$$$$$$$$$$$$$$$$$$$$$$$$$$$ moment $$$$$$$$$$$$$$$$$$$$$$$$$$$$$$$$$$$$
MOMENT         2       6       0   1.0+0   0.0+0  -1.0+4   0.0+0
$--1---><--2---><--3---><--4---><--5---><--6---><--7---><--8---><--9---><--10-->
$$$$$$$$$$$$$$$$$$$$$$$$$$$$$$$$$$$$ moment $$$$$$$$$$$$$$$$$$$$$$$$$$$$$$$$$$$$
MOMENT         2       2       0   1.0+0   0.0+0  -1.0+4   0.0+0
$--1---><--2---><--3---><--4---><--5---><--6---><--7---><--8---><--9---><--10-->
$$$$$$$$$$$$$$$$$$$$$$$$$$$$$$$$$$$$ moment $$$$$$$$$$$$$$$$$$$$$$$$$$$$$$$$$$$$
MOMENT         2      12       0   1.0+0   0.0+0  -1.0+4   0.0+0
$--1---><--2---><--3---><--4---><--5---><--6---><--7---><--8---><--9---><--10-->
$$$$$$$$$$$$$$$$$$$$$$$$$$$$$$$$$$$$ moment $$$$$$$$$$$$$$$$$$$$$$$$$$$$$$$$$$$$
MOMENT         2       8       0   1.0+0   0.0+0  -1.0+4   0.0+0
$--1---><--2---><--3---><--4---><--5---><--6---><--7---><--8---><--9---><--10-->
$$$$$$$$$$$$$$$$$$$$$$$$$$$$$$$$$$$$ force $$$$$$$$$$$$$$$$$$$$$$$$$$$$$$$$$$$$$
FORCE          2       8       0   1.0+0   7.5+5   0.0+0   0.0+0
FORCE          2      12       0   1.0+0   7.5+5   0.0+0   0.0+0
FORCE          2       2       0   1.0+0   7.5+5   0.0+0   0.0+0
FORCE          2       6       0   1.0+0   7.5+5   0.0+0   0.0+0
$--1---><--2---><--3---><--4---><--5---><--6---><--7---><--8---><--9---><--10-->
LOAD           1   1.0+0   1.0+0       2
ENDDATA 
