SOL 101
CEND
STRESS() = ALL
STRAIN(FIBER) = ALL
SPC = 1
BEGIN BULK
GRID           1       0   0.0+0   0.0+0   0.0+0       0
GRID           2       0   1.0-3   0.0+0   0.0+0       0
GRID           3       0   1.0-3   1.0-3   0.0+0       0
GRID           4       0   0.0+0   1.0-3   0.0+0       0
GRID           5       0   5.0-4   0.0+0   0.0+0       0
GRID           6       0   1.0-3   5.0-4   0.0+0       0
GRID           7       0   5.0-4   1.0-3   0.0+0       0
GRID           8       0   0.0+0   5.0-4   0.0+0       0
MAT1           1  2.1+17  7.5+16   4.0-1   0.0+0   0.0+0   0.0+0
SPC            1       1       1   0.0+0
SPC            1       1       2   0.0+0
SPC            1       1       3   0.0+0
SPC            1       2       1   2.4-6
SPC            1       2       2   0.0+0
SPC            1       2       3   0.0+0
SPC            1       3       1   3.3-6
SPC            1       3       2  -1.3-6
SPC            1       3       3   0.0+0
SPC            1       4       1   9.0-7
SPC            1       4       2  -1.3-6
SPC            1       4       3   0.0+0
SPC            1       5       2   0.0+0
SPC            1       5       1   1.2-6
SPC            1       6       1  2.85-6
SPC            1       6       2  -6.5-7
SPC            1       7       2  -1.3-6
SPC            1       7       1   2.1-6
SPC            1       8       1   4.5-7
SPC            1       8       2  -6.5-7
PSHELL         1       1   2.3-4       1               1           0.0+0
CQUAD8         1       1       1       2       3       4       5       6+
+              7       8                                       2   0.0+0
CORD2R         2       0   0.0+0   0.0+0   0.0+0   0.0+0   1.0+0   0.0+0+
+          1.0+0   0.0+0   0.0+0
ENDDATA 
