SOL 101
CEND
STRAIN(FIBER) = ALL
SPC = 1
BEGIN BULK
GRID           1       0   0.0+0   0.0+0   0.0+0       0
GRID           2       0   1.0-3   0.0+0   0.0+0       0
GRID           3       0   1.0-3   1.0-3   0.0+0       0
GRID           4       0   0.0+0   1.0-3   0.0+0       0
MAT1           1  2.1+17  7.5+16   4.0-1   0.0+0   0.0+0   0.0+0
SPC            1       1       1   0.0+0
SPC            1       1       2   0.0+0
SPC            1       1       3   0.0+0
SPC            1       2       1   2.4-6
SPC            1       2       2   0.0+0
SPC            1       2       3   0.0+0
SPC            1       3       1   3.3-6
SPC            1       3       2  -1.3-6
SPC            1       3       3   0.0+0
SPC            1       4       1   9.0-7
SPC            1       4       2  -1.3-6
SPC            1       4       3   0.0+0
PSHELL         1       1   2.3-4       1               1           0.0+0
CTRIA3         1       1       1       3       4   0.0+0   0.0+0
CTRIA3         2       1       1       2       3   0.0+0   0.0+0
ENDDATA 
