$ Generated by Mecway 33
$-----------------------EXECUTIVE CONTROL SECTION-----------------------
SOL 101
CEND
$-------------------------CASE CONTROL SECTION--------------------------
DISPLACEMENT = ALL
SPC = 1
BEGIN BULK
$---------------------------BULK DATA SECTION---------------------------
GRID           1       0   0.0+0   0.0+0   0.0+0       0
GRID*                  2               0 7.07106781187-4           0.0+0*
*       -7.07106781187-4               0
GRID*                  3               0 7.07106781187-4           1.0-3*
*       -7.07106781187-4               0
GRID           4       0   0.0+0   1.0-3   0.0+0       0
GRID*                  5               0 7.07106781187-4           0.0+0*
*        7.07106781187-4               1
GRID*                  6               0 1.41421356237-3           0.0+0*
*       -1.1694812212-18               1
GRID*                  7               0 1.41421356237-3           1.0-3*
*       -1.1694812212-18               1
GRID*                  8               0 7.07106781187-4           1.0-3*
*        7.07106781187-4               1
PARAM    STR_CID      -2
$--1---><--2---><--3---><--4---><--5---><--6---><--7---><--8---><--9---><--10-->
$$$$$$$$$$$$$$$$$$$$$$$$$$$$$$$$$$$ Material $$$$$$$$$$$$$$$$$$$$$$$$$$$$$$$$$$$
MAT1           1  2.0+11  1.0+11   0.0+0   0.0+0   0.0+0   0.0+0
$--1---><--2---><--3---><--4---><--5---><--6---><--7---><--8---><--9---><--10-->
CORD2R*                1               0           0.0+0           0.0+0*
*                  0.0+0 7.07106781187-1           0.0+0 7.07106781187-1*
*        7.07106781187-1           0.0+0-7.07106781187-1                *
*
SPC            1       1       1   0.0+0
SPC            1       1       2   0.0+0
SPC            1       1       3   0.0+0
SPC            1       2       1   0.0+0
SPC            1       2       2   0.0+0
SPC            1       2       3   0.0+0
SPC            1       3       1   0.0+0
SPC            1       3       2   0.0+0
SPC            1       3       3   0.0+0
SPC            1       4       1   0.0+0
SPC            1       4       2   0.0+0
SPC            1       4       3   0.0+0
SPC            1       5       3  -1.0-4
SPC            1       6       3  -1.0-4
SPC            1       7       3  -1.0-4
SPC            1       8       3  -1.0-4
$--1---><--2---><--3---><--4---><--5---><--6---><--7---><--8---><--9---><--10-->
$$$$$$$$$$$$$$$$$$$$$$$$$$$$$$$$$$$ Default $$$$$$$$$$$$$$$$$$$$$$$$$$$$$$$$$$$$
PSOLID         2       1       0       2               1
CHEXA          1       2       8       4       3       7       5       1+
+              2       6
$--1---><--2---><--3---><--4---><--5---><--6---><--7---><--8---><--9---><--10-->
ENDDATA 
