$ Generated by Mecway 33
$-----------------------EXECUTIVE CONTROL SECTION-----------------------
SOL 101
CEND
$-------------------------CASE CONTROL SECTION--------------------------
DISPLACEMENT = ALL
SPC = 1
LOAD = 1
BEGIN BULK
$---------------------------BULK DATA SECTION---------------------------
GRID           1       0   0.0+0   0.0+0   0.0+0       0
GRID           2       0   1.0+0   0.0+0   0.0+0       0
GRID           3       0   1.0+0   1.0+0   0.0+0       0
GRID           4       0   0.0+0   1.0+0   0.0+0       0
GRID           5       0   0.0+0   0.0+0   1.0+0       0
GRID           6       0   1.0+0   0.0+0   1.0+0       0
GRID           7       0   1.0+0   1.0+0   1.0+0       0
GRID           8       0   0.0+0   1.0+0   1.0+0       0
GRID           9       0   2.0+0   0.0+0   0.0+0       0
GRID          10       0   3.0+0   0.0+0   0.0+0       0
GRID          11       0   3.0+0   1.0+0   0.0+0       0
GRID          12       0   2.0+0   1.0+0   0.0+0       0
GRID          13       0   2.0+0   0.0+0   1.0+0       0
GRID          14       0   3.0+0   0.0+0   1.0+0       0
GRID          15       0   3.0+0   1.0+0   1.0+0       0
GRID          16       0   2.0+0   1.0+0   1.0+0       0
GRID          17       0   4.0+0   0.0+0   0.0+0       0
GRID          18       0   5.0+0   0.0+0   0.0+0       0
GRID          19       0   5.0+0   1.0+0   0.0+0       0
GRID          20       0   4.0+0   1.0+0   0.0+0       0
$ ... 256 like lines cut
PARAM    STR_CID      -2
$--1---><--2---><--3---><--4---><--5---><--6---><--7---><--8---><--9---><--10-->
$$$$$$$$$$$$$$$$$$$$$$$$$$$$$$$$$$$ Material $$$$$$$$$$$$$$$$$$$$$$$$$$$$$$$$$$$
MAT9*                  1 2.6642501133+11 6.2528318985+10 1.1282283643+11*
*                  0.0+0           0.0+0           0.0+0 3.2079746262+11*
*        5.7091073856+10           0.0+0           0.0+0           0.0+0*
*        2.0083824196+11           0.0+0           0.0+0           0.0+0*
*                 9.0+10           0.0+0           0.0+0          1.5+11*
*                  0.0+0          7.0+10           0.0+0           0.0+0*
*                  0.0+0           0.0+0           0.0+0           0.0+0*
*                  0.0+0           0.0+0           0.0+0
$--1---><--2---><--3---><--4---><--5---><--6---><--7---><--8---><--9---><--10-->
SPC            1       1       1   0.0+0
SPC            1       1       2   0.0+0
SPC            1       1       3   0.0+0
SPC            1       2       2   0.0+0
SPC            1       2       3   0.0+0
SPC            1       3       3   0.0+0
SPC            1       4       1   0.0+0
SPC            1       4       3   0.0+0
SPC            1       5       1   0.0+0
SPC            1       5       2   0.0+0
SPC            1       6       2   0.0+0
SPC            1       8       1   0.0+0
SPC            1       9       1   0.0+0
SPC            1       9       2   0.0+0
SPC            1       9       3   0.0+0
SPC            1      10       2   0.0+0
SPC            1      10       3   0.0+0
SPC            1      11       3   0.0+0
SPC            1      12       1   0.0+0
SPC            1      12       3   0.0+0
$ ... 316 like lines cut
$--1---><--2---><--3---><--4---><--5---><--6---><--7---><--8---><--9---><--10-->
$$$$$$$$$$$$$$$$$$$$$$$$$$$$$$$$$$$ Default $$$$$$$$$$$$$$$$$$$$$$$$$$$$$$$$$$$$
PSOLID         1       1       0       2               1
CHEXA          1       1       1       2       3       4       5       6+
+              7       8
CHEXA          2       1       9      10      11      12      13      14+
+             15      16
CHEXA          3       1      17      18      19      20      21      22+
+             23      24
PSOLID         2       1       0       3               1
CHEXA          4       2      25      26      27      28      29      30+
+             31      32     145     146     147     148     149     150+
+            151     152     153     154     155     156
CHEXA          5       2      33      34      35      36      37      38+
+             39      40     157     158     159     160     161     162+
+            163     164     165     166     167     168
CHEXA          6       2      41      42      43      44      45      46+
+             47      48     169     170     171     172     173     174+
+            175     176     177     178     179     180
PSOLID         3       1       0                        
CTETRA         7       3      54      55      51      56
CTETRA         8       3      62      63      59      64
CTETRA         9       3      70      71      67      72
CTETRA        19       3      49      54      56      53
CTETRA        20       3      49      51      52      56
CTETRA        21       3      49      54      51      56
CTETRA        22       3      49      50      51      54
CTETRA        23       3      57      62      64      61
CTETRA        24       3      57      59      60      64
CTETRA        25       3      57      62      59      64
CTETRA        26       3      57      58      59      62
CTETRA        27       3      65      70      72      69
CTETRA        28       3      65      67      68      72
CTETRA        29       3      65      70      67      72
CTETRA        30       3      65      66      67      70
PSOLID         4       1       0                        
CTETRA        10       4      78      79      75      80     181     182+
+            183     184     185     186
CTETRA        11       4      86      87      83      88     187     188+
+            189     190     191     192
CTETRA        12       4      94      95      91      96     193     194+
+            195     196     197     198
CTETRA        31       4      73      78      80      77     199     184+
+            200     201     202     203
CTETRA        32       4      73      75      76      80     204     205+
+            206     200     186     207
CTETRA        33       4      73      78      75      80     199     183+
+            204     200     184     186
CTETRA        34       4      73      74      75      78     208     209+
+            204     199     210     183
CTETRA        35       4      81      86      88      85     211     190+
+            212     213     214     215
CTETRA        36       4      81      83      84      88     216     217+
+            218     212     192     219
CTETRA        37       4      81      86      83      88     211     189+
+            216     212     190     192
CTETRA        38       4      81      82      83      86     220     221+
+            216     211     222     189
CTETRA        39       4      89      94      96      93     223     196+
+            224     225     226     227
CTETRA        40       4      89      91      92      96     228     229+
+            230     224     198     231
CTETRA        41       4      89      94      91      96     223     195+
+            228     224     196     198
CTETRA        42       4      89      90      91      94     232     233+
+            228     223     234     195
PSOLID         5       1       0       2               1
CPENTA        13       5      99     100      97     103     104     101
CPENTA        14       5     107     108     105     111     112     109
CPENTA        15       5     115     116     113     119     120     117
CPENTA        43       5      97      98      99     101     102     103
CPENTA        44       5     105     106     107     109     110     111
CPENTA        45       5     113     114     115     117     118     119
PSOLID         6       1       0       3               1
CPENTA        16       6     123     124     121     127     128     125+
+            235     236     237     238     239     240     241     242+
+            243
CPENTA        17       6     131     132     129     135     136     133+
+            244     245     246     247     248     249     250     251+
+            252
CPENTA        18       6     139     140     137     143     144     141+
+            253     254     255     256     257     258     259     260+
+            261
CPENTA        46       6     121     122     123     125     126     127+
+            262     263     237     240     264     238     265     266+
+            243
CPENTA        47       6     129     130     131     133     134     135+
+            267     268     246     249     269     247     270     271+
+            252
CPENTA        48       6     137     138     139     141     142     143+
+            272     273     255     258     274     256     275     276+
+            261
$--1---><--2---><--3---><--4---><--5---><--6---><--7---><--8---><--9---><--10-->
$$$$$$$$$$$$$$$$$$$$$$$$$$$$$$$$$$$$ force $$$$$$$$$$$$$$$$$$$$$$$$$$$$$$$$$$$$$
FORCE*                 2               2               0           1.0+0*
*        4.16666666653+4           0.0+0           0.0+0
FORCE*                 2               3               0           1.0+0*
*        4.16666666653+4           0.0+0           0.0+0
FORCE*                 2               6               0           1.0+0*
*        4.16666666653+4           0.0+0           0.0+0
FORCE*                 2               7               0           1.0+0*
*        4.16666666653+4           0.0+0           0.0+0
FORCE*                 2              50               0           1.0+0*
*        2.77777777769+4           0.0+0           0.0+0
FORCE*                 2              51               0           1.0+0*
*        5.55555555537+4           0.0+0           0.0+0
FORCE*                 2              54               0           1.0+0*
*        5.55555555537+4           0.0+0           0.0+0
FORCE*                 2              98               0           1.0+0*
*        4.16666666653+4           0.0+0           0.0+0
FORCE*                 2              99               0           1.0+0*
*        4.16666666653+4           0.0+0           0.0+0
FORCE*                 2             102               0           1.0+0*
*        4.16666666653+4           0.0+0           0.0+0
FORCE*                 2             103               0           1.0+0*
*        4.16666666653+4           0.0+0           0.0+0
FORCE*                 2              78               0           1.0+0*
*       -2.60373508354-6           0.0+0           0.0+0
FORCE*                 2              79               0           1.0+0*
*        -6.5493341026-6           0.0+0           0.0+0
FORCE*                 2              75               0           1.0+0*
*       -2.60371564309-6           0.0+0           0.0+0
FORCE*                 2             181               0           1.0+0*
*        2.77777777995+4           0.0+0           0.0+0
FORCE*                 2             182               0           1.0+0*
*        2.77777777575+4           0.0+0           0.0+0
FORCE*                 2             183               0           1.0+0*
*        5.55555555989+4           0.0+0           0.0+0
FORCE*                 2             122               0           1.0+0*
*       -1.38888888884+4           0.0+0           0.0+0
FORCE*                 2             123               0           1.0+0*
*       -1.38888888884+4           0.0+0           0.0+0
FORCE*                 2             126               0           1.0+0*
*       -1.38888888884+4           0.0+0           0.0+0
$ ... 34 like lines cut
$--1---><--2---><--3---><--4---><--5---><--6---><--7---><--8---><--9---><--10-->
$$$$$$$$$$$$$$$$$$$$$$$$$$$$$$$$$$$$ force $$$$$$$$$$$$$$$$$$$$$$$$$$$$$$$$$$$$$
FORCE*                 2              11               0           1.0+0*
*                  0.0+0 4.16666666653+4           0.0+0
FORCE*                 2              12               0           1.0+0*
*                  0.0+0 4.16666666653+4           0.0+0
FORCE*                 2              15               0           1.0+0*
*                  0.0+0 4.16666666653+4           0.0+0
FORCE*                 2              16               0           1.0+0*
*                  0.0+0 4.16666666653+4           0.0+0
FORCE*                 2              59               0           1.0+0*
*                  0.0+0 5.55555555537+4           0.0+0
FORCE*                 2              60               0           1.0+0*
*                  0.0+0 2.77777777769+4           0.0+0
FORCE*                 2              64               0           1.0+0*
*                  0.0+0 5.55555555537+4           0.0+0
FORCE*                 2             107               0           1.0+0*
*                  0.0+0 4.16666666653+4           0.0+0
FORCE*                 2             108               0           1.0+0*
*                  0.0+0 4.16666666653+4           0.0+0
FORCE*                 2             111               0           1.0+0*
*                  0.0+0 4.16666666653+4           0.0+0
FORCE*                 2             112               0           1.0+0*
*                  0.0+0 4.16666666653+4           0.0+0
FORCE*                 2              87               0           1.0+0*
*                  0.0+0-6.54933228361-6           0.0+0
FORCE*                 2              83               0           1.0+0*
*                  0.0+0-2.60373360561-6           0.0+0
FORCE*                 2              88               0           1.0+0*
*                  0.0+0 -1.3098674799-5           0.0+0
FORCE*                 2             188               0           1.0+0*
*                  0.0+0 2.77777777995+4           0.0+0
FORCE*                 2             191               0           1.0+0*
*                  0.0+0 2.77777777575+4           0.0+0
FORCE*                 2             192               0           1.0+0*
*                  0.0+0 5.55555555569+4           0.0+0
FORCE*                 2             131               0           1.0+0*
*                  0.0+0-1.38888888884+4           0.0+0
FORCE*                 2             132               0           1.0+0*
*                  0.0+0-1.38888888884+4           0.0+0
FORCE*                 2             135               0           1.0+0*
*                  0.0+0-1.38888888884+4           0.0+0
$ ... 34 like lines cut
$--1---><--2---><--3---><--4---><--5---><--6---><--7---><--8---><--9---><--10-->
$$$$$$$$$$$$$$$$$$$$$$$$$$$$$$$$$$$$ force $$$$$$$$$$$$$$$$$$$$$$$$$$$$$$$$$$$$$
FORCE*                 2              21               0           1.0+0*
*                  0.0+0           0.0+0 4.16666666639+4
FORCE*                 2              22               0           1.0+0*
*                  0.0+0           0.0+0 4.16666666639+4
FORCE*                 2              23               0           1.0+0*
*                  0.0+0           0.0+0 4.16666666639+4
FORCE*                 2              24               0           1.0+0*
*                  0.0+0           0.0+0 4.16666666639+4
FORCE*                 2              70               0           1.0+0*
*                  0.0+0           0.0+0 5.55555555519+4
FORCE*                 2              72               0           1.0+0*
*                  0.0+0           0.0+0 5.55555555519+4
FORCE*                 2              69               0           1.0+0*
*                  0.0+0           0.0+0 2.77777777759+4
FORCE*                 2             117               0           1.0+0*
*                  0.0+0           0.0+0 5.55555555519+4
FORCE*                 2             118               0           1.0+0*
*                  0.0+0           0.0+0 2.77777777759+4
FORCE*                 2             119               0           1.0+0*
*                  0.0+0           0.0+0 5.55555555519+4
FORCE*                 2              94               0           1.0+0*
*                  0.0+0           0.0+0-2.60372723915-6
FORCE*                 2              95               0           1.0+0*
*                  0.0+0           0.0+0-6.54931204735-6
FORCE*                 2              96               0           1.0+0*
*                  0.0+0           0.0+0-2.60371291461-6
FORCE*                 2             193               0           1.0+0*
*                  0.0+0           0.0+0 2.77777777985+4
FORCE*                 2             196               0           1.0+0*
*                  0.0+0           0.0+0 5.55555555971+4
FORCE*                 2             197               0           1.0+0*
*                  0.0+0           0.0+0 2.77777777565+4
FORCE*                 2             143               0           1.0+0*
*                  0.0+0           0.0+0-2.60369517946-6
FORCE*                 2             144               0           1.0+0*
*                  0.0+0           0.0+0 -6.5492918111-6
FORCE*                 2             141               0           1.0+0*
*                  0.0+0           0.0+0-2.60379658812-6
FORCE*                 2             259               0           1.0+0*
*                  0.0+0           0.0+0 2.77777777985+4
$ ... 36 like lines cut
$--1---><--2---><--3---><--4---><--5---><--6---><--7---><--8---><--9---><--10-->
LOAD           1   1.0+0   1.0+0       2
ENDDATA 
