$ Generated by Mecway 33
$-----------------------EXECUTIVE CONTROL SECTION-----------------------
SOL 101
CEND
$-------------------------CASE CONTROL SECTION--------------------------
DISPLACEMENT = ALL
SPC = 1
LOAD = 1
BEGIN BULK
$---------------------------BULK DATA SECTION---------------------------
GRID           1       0   0.0+0   0.0+0   0.0+0       0
GRID           2       0   2.0-1   0.0+0   0.0+0       0
GRID           3       0   2.0-1   4.0+0   0.0+0       0
GRID           4       0   0.0+0   4.0+0   0.0+0       0
GRID           5       0   0.0+0   0.0+0   2.0-1       0
GRID           6       0   2.0-1   0.0+0   2.0-1       0
GRID           7       0   2.0-1   4.0+0   2.0-1       0
GRID           8       0   0.0+0   4.0+0   2.0-1       0
GRID           9       0   1.0-1   0.0+0   0.0+0       0
GRID          10       0   2.0-1   2.0+0   0.0+0       0
GRID          11       0   1.0-1   4.0+0   0.0+0       0
GRID          12       0   0.0+0   2.0+0   0.0+0       0
GRID          13       0   1.0-1   0.0+0   2.0-1       0
GRID          14       0   2.0-1   2.0+0   2.0-1       0
GRID          15       0   1.0-1   4.0+0   2.0-1       0
GRID          16       0   0.0+0   2.0+0   2.0-1       0
GRID          17       0   0.0+0   0.0+0   1.0-1       0
GRID          18       0   2.0-1   0.0+0   1.0-1       0
GRID          19       0   2.0-1   4.0+0   1.0-1       0
GRID          20       0   0.0+0   4.0+0   1.0-1       0
$ ... 243 like lines cut
PARAM    STR_CID      -2
$--1---><--2---><--3---><--4---><--5---><--6---><--7---><--8---><--9---><--10-->
$$$$$$$$$$$$$$$$$$$$$$$$$$$$$$$$$$$ Material $$$$$$$$$$$$$$$$$$$$$$$$$$$$$$$$$$$
MAT1           1  1.0+11  5.0+10   0.0+0   0.0+0   0.0+0   0.0+0
$--1---><--2---><--3---><--4---><--5---><--6---><--7---><--8---><--9---><--10-->
$$$$$$$$$$$$$$$$$$$$$$$$$$$$$$$$$ Material(2) $$$$$$$$$$$$$$$$$$$$$$$$$$$$$$$$$$
MAT1           2  1.0+11  5.0+10   0.0+0   0.0+0   0.0+0   0.0+0
$--1---><--2---><--3---><--4---><--5---><--6---><--7---><--8---><--9---><--10-->
SPC            1       1       1   0.0+0
SPC            1       1       2   0.0+0
SPC            1       1       3   0.0+0
SPC            1       2       1   0.0+0
SPC            1       2       2   0.0+0
SPC            1       2       3   0.0+0
SPC            1       5       1   0.0+0
SPC            1       5       2   0.0+0
SPC            1       5       3   0.0+0
SPC            1       6       1   0.0+0
SPC            1       6       2   0.0+0
SPC            1       6       3   0.0+0
SPC            1       9       1   0.0+0
SPC            1       9       2   0.0+0
SPC            1       9       3   0.0+0
SPC            1      13       1   0.0+0
SPC            1      13       2   0.0+0
SPC            1      13       3   0.0+0
SPC            1      17       1   0.0+0
SPC            1      17       2   0.0+0
$ ... 49 like lines cut
$--1---><--2---><--3---><--4---><--5---><--6---><--7---><--8---><--9---><--10-->
$$$$$$$$$$$$$$$$$$$$$$$$$$$$$$$$$$$ Default $$$$$$$$$$$$$$$$$$$$$$$$$$$$$$$$$$$$
PSOLID         1       1       0       3               1
CHEXA          1       1      32      38      23      20      33      39+
+             15       8      84      85      86      87      88      89+
+             90      91      92      93      94      95
CHEXA          2       1      44      50      25      12      45      51+
+             27      24      96      97      98      99     100     101+
+            102     103     104     105     106     107
CHEXA          3       1      50      62      10      25      51      63+
+             22      27     108     109     110      97     101     111+
+            112     102     113     114     115     105
CHEXA          4       1      68      74       3      11      38      75+
+             19      23     116     117     118     119     120     121+
+            122     123     124     125     126      85
CHEXA          5       1      80      68      11       4      32      38+
+             23      20     127     119     128     129     130     120+
+            123     131      84      85      86      87
CHEXA          6       1      45      51      27      24      81      57+
+             26      16     104     105     106     107     132     133+
+            134     135     136     137     138     139
CHEXA          7       1      51      63      22      27      57      56+
+             14      26     113     114     115     105     133     140+
+            141     134     142     143     144     137
CHEXA          8       1      38      75      19      23      39      54+
+              7      15     124     125     126      85      89     145+
+            146      90     147     148     149      93
CHEXA          9       1      24      27      34      28      16      26+
+             35      29     106     150     151     152     135     134+
+            153     154     138     155     156     157
CHEXA         10       1      28      34      36      30      29      35+
+             37      31     151     158     159     160     154     153+
+            161     162     156     163     164     165
CHEXA         11       1      30      36      38      32      31      37+
+             39      33     159     166      84     167     162     161+
+             89      88     164     168      92     169
CHEXA         12       1       1       9      46      40      17      21+
+             47      41     170     171     172     173     174     175+
+            176     177     178     179     180     181
CHEXA         13       1      40      46      48      42      41      47+
+             49      43     172     182     183     184     177     176+
+            185     186     180     187     188     189
CHEXA         14       1      42      48      50      44      43      49+
+             51      45     183     190      96     191     186     185+
+            101     100     188     192     104     193
CHEXA         15       1       9       2      58      46      21      18+
+             59      47     194     195     196     171     175     197+
+            198     176     199     200     201     179
CHEXA         16       1      46      58      60      48      47      59+
+             61      49     196     202     203     182     176     198+
+            204     185     201     205     206     187
CHEXA         17       1      48      60      62      50      49      61+
+             63      51     203     207     108     190     185     204+
+            111     101     206     208     113     192
CHEXA         18       1      25      10      70      64      27      22+
+             71      34     110     209     210     211     102     112+
+            212     213     115     214     215     150
CHEXA         19       1      64      70      72      66      34      71+
+             73      36     210     216     217     218     213     212+
+            219     220     215     221     222     158
CHEXA         20       1      66      72      74      68      36      73+
+             75      38     217     223     116     224     220     219+
+            121     120     222     225     124     166
$ ... 36 like lines cut
$--1---><--2---><--3---><--4---><--5---><--6---><--7---><--8---><--9---><--10-->
$$$$$$$$$$$$$$$$$$$$$$$$$$$$$$$$$$ Component $$$$$$$$$$$$$$$$$$$$$$$$$$$$$$$$$$$
PBAR*                  2               2           4.0-2 1.33333333333-4*
*        1.33333333333-4 2.25333333333-4           0.0+0
CBAR          33       2      82      83   1.0+0   0.0+0   0.0+0        
$--1---><--2---><--3---><--4---><--5---><--6---><--7---><--8---><--9---><--10-->
$$$$$$$$$$$$$$$$$$$$$$$$$$$$$$$$$$$$ moment $$$$$$$$$$$$$$$$$$$$$$$$$$$$$$$$$$$$
FORCE*                 2               3               0           1.0+0*
*        1.04166666667+2           0.0+0 1.04166666667+2
FORCE*                 2              11               0           1.0+0*
*        2.08333333333+2           0.0+0 1.1368683772-13
FORCE*                 2              19               0           1.0+0*
*        1.9895196601-13           0.0+0 2.08333333333+2
FORCE*                 2              23               0           1.0+0*
*        3.4106051316-13           0.0+0  2.842170943-13
FORCE*                 2             118               0           1.0+0*
*       -8.33333333333+2           0.0+0         -6.25+2
FORCE*                 2             122               0           1.0+0*
*                -6.25+2           0.0+0-8.33333333333+2
FORCE*                 2             123               0           1.0+0*
*                -1.25+3           0.0+0-3.4106051316-13
FORCE*                 2             126               0           1.0+0*
*       -7.3896444519-13           0.0+0         -1.25+3
FORCE*                 2               7               0           1.0+0*
*       -1.04166666667+2           0.0+0 1.04166666667+2
FORCE*                 2              15               0           1.0+0*
*       -2.08333333333+2           0.0+0 1.4210854715-13
FORCE*                 2             146               0           1.0+0*
*                 6.25+2           0.0+0-8.33333333333+2
FORCE*                 2              90               0           1.0+0*
*                 1.25+3           0.0+0 -2.842170943-13
FORCE*                 2             149               0           1.0+0*
*        8.33333333333+2           0.0+0         -6.25+2
FORCE*                 2               4               0           1.0+0*
*        1.04166666667+2           0.0+0-1.04166666667+2
FORCE*                 2              20               0           1.0+0*
*        1.1368683772-13           0.0+0-2.08333333333+2
FORCE*                 2             128               0           1.0+0*
*       -8.33333333333+2           0.0+0          6.25+2
FORCE*                 2             131               0           1.0+0*
*                -6.25+2           0.0+0 8.33333333333+2
FORCE*                 2              86               0           1.0+0*
*       -7.3896444519-13           0.0+0          1.25+3
FORCE*                 2               8               0           1.0+0*
*       -1.04166666667+2           0.0+0-1.04166666667+2
FORCE*                 2              91               0           1.0+0*
*                 6.25+2           0.0+0 8.33333333333+2
FORCE*                 2              94               0           1.0+0*
*        8.33333333333+2           0.0+0          6.25+2
$--1---><--2---><--3---><--4---><--5---><--6---><--7---><--8---><--9---><--10-->
$$$$$$$$$$$$$$$$$$$$$$$$$$$$$$$$$$$$ moment $$$$$$$$$$$$$$$$$$$$$$$$$$$$$$$$$$$$
MOMENT         2      82       0   1.0+0   0.0+0   1.0+3   0.0+0
$--1---><--2---><--3---><--4---><--5---><--6---><--7---><--8---><--9---><--10-->
LOAD           1   1.0+0   1.0+0       2
ENDDATA 
