$ Generated by Mecway 33
$-----------------------EXECUTIVE CONTROL SECTION-----------------------
SOL 101
CEND
$-------------------------CASE CONTROL SECTION--------------------------
DISPLACEMENT = ALL
SPC = 1
LOAD = 1
BEGIN BULK
$---------------------------BULK DATA SECTION---------------------------
GRID           1       0   0.0+0   0.0+0   0.0+0       0
GRID           2       0   2.0+0   0.0+0   0.0+0       0
GRID           3       0   1.0+0   0.0+0   0.0+0       1
GRID           4       0   0.0+0   0.0+0   0.0+0       0
GRID*                  5               0 1.41421356237+0           0.0+0*
*       -1.41421356237+0               0
GRID*                  6               0 7.07106781187-1           0.0+0*
*       -7.07106781187-1               2
PARAM    STR_CID      -2
$--1---><--2---><--3---><--4---><--5---><--6---><--7---><--8---><--9---><--10-->
$$$$$$$$$$$$$$$$$$$$$$$$$$$$$$$$$$$ Material $$$$$$$$$$$$$$$$$$$$$$$$$$$$$$$$$$$
MAT1           1  1.0+11  5.0+10   0.0+0   0.0+0   0.0+0   0.0+0
$--1---><--2---><--3---><--4---><--5---><--6---><--7---><--8---><--9---><--10-->
CORD2R*                1               0           0.0+0           0.0+0*
*                  0.0+0           0.0+0 7.07106781187-1 7.07106781187-1*
*                  1.0+0           0.0+0           0.0+0                *
*
CORD2R*                2               0           0.0+0           0.0+0*
*                  0.0+0-2.88675134595-1 4.08248290464-1 8.66025403784-1*
*        8.16496580928-1  5.7735026919-1           0.0+0                *
*
SPC            1       1       1   0.0+0
SPC            1       1       2   0.0+0
SPC            1       1       3   0.0+0
SPC            1       1       4   0.0+0
SPC            1       1       5   0.0+0
SPC            1       1       6   0.0+0
SPC            1       3       5   0.0+0
SPC            1       4       1   0.0+0
SPC            1       4       2   0.0+0
SPC            1       4       3   0.0+0
SPC            1       4       4   0.0+0
SPC            1       4       5   0.0+0
SPC            1       4       6   0.0+0
SPC            1       6       5   0.0+0
$--1---><--2---><--3---><--4---><--5---><--6---><--7---><--8---><--9---><--10-->
$$$$$$$$$$$$$$$$$$$$$$$$$$$$$$$$$$$ Default $$$$$$$$$$$$$$$$$$$$$$$$$$$$$$$$$$$$
PBAR*                  3               1           1.0-3 8.33333333333-7*
*        8.33333333333-9 3.12333508333-8           0.0+0
CBAR           1       3       3       2   0.0+0   1.0+0   0.0+0        
CBAR*                  2               3               1               3*
*                  0.0+0 7.07106781187-1-7.07106781187-1                
CBAR*                  3               3               6               5*
*       -2.6090241079-15           1.0+0  1.576516695-14                
CBAR*                  4               3               4               6*
*                 -5.0-1 7.07106781187-1          -5.0-1                
$--1---><--2---><--3---><--4---><--5---><--6---><--7---><--8---><--9---><--10-->
$$$$$$$$$$$$$$$$$$$$$$$$$$$$$$$$$$$$ force $$$$$$$$$$$$$$$$$$$$$$$$$$$$$$$$$$$$$
FORCE          2       2       0   1.0+0   0.0+0   1.0+0  -1.0+0
$--1---><--2---><--3---><--4---><--5---><--6---><--7---><--8---><--9---><--10-->
$$$$$$$$$$$$$$$$$$$$$$$$$$$$$$$$$$$$ force $$$$$$$$$$$$$$$$$$$$$$$$$$$$$$$$$$$$$
FORCE*                 2               5               0           1.0+0*
*       -7.07106781187-1           1.0+0-7.07106781187-1
$--1---><--2---><--3---><--4---><--5---><--6---><--7---><--8---><--9---><--10-->
LOAD           1   1.0+0   1.0+0       2
ENDDATA 
