$ Generated by Mecway 33
$-----------------------EXECUTIVE CONTROL SECTION-----------------------
SOL 101
CEND
$-------------------------CASE CONTROL SECTION--------------------------
DISPLACEMENT = ALL
SPC = 1
LOAD = 1
BEGIN BULK
$---------------------------BULK DATA SECTION---------------------------
GRID           1       0   0.0+0   0.0+0   0.0+0       0
GRID           2       0   1.0+0   0.0+0   0.0+0       0
GRID           3       0   1.0+0   1.0+0   0.0+0       0
GRID           4       0   0.0+0   1.0+0   0.0+0       0
GRID           5       0   2.0-1   0.0+0   1.0+0       0
GRID           6       0   1.0+0   0.0+0   1.0+0       0
GRID           7       0   1.0+0   1.0+0   1.0+0       0
GRID           8       0   2.0-1   1.0+0   1.0+0       0
GRID           9       0   2.0+0   0.0+0   0.0+0       0
GRID          10       0   3.0+0   0.0+0   0.0+0       0
GRID*                 11               0           3.0+0 6.1230317691-17*
*                  1.0+0               0
GRID*                 12               0           2.2+0 6.1230317691-17*
*                  1.0+0               0
GRID*                 13               0           2.0+0          -1.0+0*
*        1.2246063538-16               0
GRID*                 14               0           3.0+0          -1.0+0*
*        1.2246063538-16               0
GRID          15       0   3.0+0  -1.0+0   1.0+0       0
GRID          16       0   2.2+0  -1.0+0   1.0+0       0
GRID*                 17               0           2.6+0 6.1230317691-17*
*                  1.0+0               0
GRID*                 18               0 2.17180109024+0 3.0615158846-17*
*                  5.0-1               0
GRID*                 19               0           2.5+0 3.0615158846-17*
*                  5.0-1               0
GRID          20       0   3.0+0  -5.0-1   1.0+0       0
GRID          21       0   2.2+0  -5.0-1   1.0+0       0
GRID*                 22               0           2.0+0          -5.0-1*
*        6.1230317691-17               0
GRID          23       0   2.6+0  -1.0+0   1.0+0       0
GRID*                 24               0 2.17180109024+0          -1.0+0*
*                  5.0-1               0
GRID          25       0   2.5+0  -1.0+0   5.0-1       0
GRID          26       0   2.5+0   0.0+0   0.0+0       0
GRID*                 27               0           3.0+0 3.0615158846-17*
*                  5.0-1               0
GRID*                 28               0           3.0+0          -5.0-1*
*        6.1230317691-17               0
GRID*                 29               0           2.5+0          -1.0+0*
*        1.2246063538-16               0
GRID          30       0   3.0+0  -1.0+0   5.0-1       0
PARAM    STR_CID      -2
$--1---><--2---><--3---><--4---><--5---><--6---><--7---><--8---><--9---><--10-->
$$$$$$$$$$$$$$$$$$$$$$$$$$$$$$$$$$$ Material $$$$$$$$$$$$$$$$$$$$$$$$$$$$$$$$$$$
MAT1*                  1          5.0+10 1.7857142857+10           4.0-1*
*                  0.0+0           0.0+0           0.0+0
$--1---><--2---><--3---><--4---><--5---><--6---><--7---><--8---><--9---><--10-->
SPC            1       1       1   0.0+0
SPC            1       1       2   0.0+0
SPC            1       1       3   0.0+0
SPC            1       2       3   0.0+0
SPC            1       2       2   0.0+0
SPC            1       5       2   0.0+0
SPC            1       6       2   0.0+0
SPC            1      13       1   0.0+0
SPC            1      13       2   0.0+0
SPC            1      13       3   0.0+0
SPC            1      14       3   0.0+0
SPC            1      14       2   0.0+0
SPC            1      15       2   0.0+0
SPC            1      16       2   0.0+0
SPC            1      23       2   0.0+0
SPC            1      24       2   0.0+0
SPC            1      25       2   0.0+0
SPC            1      29       2   0.0+0
SPC            1      30       2   0.0+0
$--1---><--2---><--3---><--4---><--5---><--6---><--7---><--8---><--9---><--10-->
$$$$$$$$$$$$$$$$$$$$$$$$$$$$$$$$$$$ Default $$$$$$$$$$$$$$$$$$$$$$$$$$$$$$$$$$$$
PSOLID         1       1       0       2               1
CPENTA         1       1       3       4       1       7       8       5
CPENTA         3       1       1       2       3       5       6       7
PSOLID         2       1       0       3               1
CPENTA         2       2      11      12       9      15      16      13+
+             17      18      19      20      21      22      23      24+
+             25
CPENTA         4       2       9      10      11      13      14      15+
+             26      27      19      22      28      20      29      30+
+             25
$--1---><--2---><--3---><--4---><--5---><--6---><--7---><--8---><--9---><--10-->
$$$$$$$$$$$$$$$$$$$$$$$$$$$$$$$$$$$$ force $$$$$$$$$$$$$$$$$$$$$$$$$$$$$$$$$$$$$
FORCE*                 2               9               0           1.0+0*
*                  0.0+0-8.19585114824+1           0.0+0
FORCE*                 2              10               0           1.0+0*
*                  0.0+0-6.72825876791-7           0.0+0
FORCE*                 2              11               0           1.0+0*
*                  0.0+0 4.09792555681+1           0.0+0
FORCE*                 2              26               0           1.0+0*
*                  0.0+0 2.85366529049+3           0.0+0
FORCE*                 2              27               0           1.0+0*
*                  0.0+0 2.85366528618+3           0.0+0
FORCE*                 2              19               0           1.0+0*
*                  0.0+0 4.80876347626+3           0.0+0
FORCE*                 2              12               0           1.0+0*
*                  0.0+0 4.09792552815+1           0.0+0
FORCE*                 2              17               0           1.0+0*
*                  0.0+0 2.11901520912+3           0.0+0
FORCE*                 2              18               0           1.0+0*
*                  0.0+0 1.95509818313+3           0.0+0
$--1---><--2---><--3---><--4---><--5---><--6---><--7---><--8---><--9---><--10-->
$$$$$$$$$$$$$$$$$$$$$$$$$$$$$$$$$$$$ force $$$$$$$$$$$$$$$$$$$$$$$$$$$$$$$$$$$$$
FORCE*                 2               3               0           1.0+0*
*                  0.0+0     3.9951314+3           0.0+0
FORCE*                 2               4               0           1.0+0*
*                  0.0+0     3.9951314+3           0.0+0
$--1---><--2---><--3---><--4---><--5---><--6---><--7---><--8---><--9---><--10-->
$$$$$$$$$$$$$$$$$$$$$$$$$$$$$$$$$$$$ force $$$$$$$$$$$$$$$$$$$$$$$$$$$$$$$$$$$$$
FORCE*                 2               8               0           1.0+0*
*                  0.0+0    3.70976488+3           0.0+0
FORCE*                 2               7               0           1.0+0*
*                  0.0+0    3.70976488+3           0.0+0
$--1---><--2---><--3---><--4---><--5---><--6---><--7---><--8---><--9---><--10-->
LOAD           1   1.0+0   1.0+0       2
ENDDATA 
