$ Generated by Mecway 33
$-----------------------EXECUTIVE CONTROL SECTION-----------------------
SOL 101
CEND
$-------------------------CASE CONTROL SECTION--------------------------
DISPLACEMENT = ALL
SPC = 1
LOAD = 1
BEGIN BULK
$---------------------------BULK DATA SECTION---------------------------
GRID           1       0   0.0+0   0.0+0   0.0+0       0
GRID           2       0   5.0-1   0.0+0   0.0+0       0
GRID           3       0   5.0-1   1.0+0   0.0+0       0
GRID           4       0   0.0+0   1.0+0   0.0+0       0
GRID           5       0   0.0+0   0.0+0   5.0-1       0
GRID           6       0   5.0-1   0.0+0   5.0-1       0
GRID           7       0   5.0-1   1.0+0   5.0-1       0
GRID           8       0   0.0+0   1.0+0   5.0-1       0
GRID           9       0   5.0-1   2.0+0   5.0-1       0
GRID          10       0   0.0+0   2.0+0   5.0-1       0
GRID          11       0   5.0-1   2.0+0   0.0+0       0
GRID          12       0   0.0+0   2.0+0   0.0+0       0
PARAM    STR_CID      -2
$--1---><--2---><--3---><--4---><--5---><--6---><--7---><--8---><--9---><--10-->
$$$$$$$$$$$$$$$$$$$$$$$$$$$$$$$$$$$ Material $$$$$$$$$$$$$$$$$$$$$$$$$$$$$$$$$$$
MAT1           1  2.1+11 1.05+11   0.0+0   8.0+3   0.0+0   0.0+0
$--1---><--2---><--3---><--4---><--5---><--6---><--7---><--8---><--9---><--10-->
SPC            1       1       1   0.0+0
SPC            1       1       2   0.0+0
SPC            1       1       3   0.0+0
SPC            1       2       1   0.0+0
SPC            1       2       2   0.0+0
SPC            1       2       3   0.0+0
SPC            1       5       1   0.0+0
SPC            1       5       2   0.0+0
SPC            1       5       3   0.0+0
SPC            1       6       1   0.0+0
SPC            1       6       2   0.0+0
SPC            1       6       3   0.0+0
$--1---><--2---><--3---><--4---><--5---><--6---><--7---><--8---><--9---><--10-->
$$$$$$$$$$$$$$$$$$$$$$$$$$$$$$$$$$$ Default $$$$$$$$$$$$$$$$$$$$$$$$$$$$$$$$$$$$
PROD           1       1   5.0-3
CROD           1       1       1       4
CROD           2       1       2       3
CROD           3       1       3       4
CROD           4       1       5       8
CROD           5       1       6       7
CROD           6       1       7       8
CROD           7       1       8       4
CROD           8       1       3       7
CROD           9       1       4      12
CROD          10       1       3      11
CROD          11       1      11      12
CROD          12       1       8      10
CROD          13       1       7       9
CROD          14       1       9      10
CROD          15       1      10      12
CROD          16       1      11       9
CROD          17       1       6       8
CROD          18       1       6       3
CROD          19       1       1       3
CROD          20       1       1       8
$ ... 4 like lines cut
$--1---><--2---><--3---><--4---><--5---><--6---><--7---><--8---><--9---><--10-->
$$$$$$$$$$$$$$$$$$$$$$$$$$$$$$$$$$$ gravity $$$$$$$$$$$$$$$$$$$$$$$$$$$$$$$$$$$$
GRAV           3       0   1.0+0   0.0+0  -1.0+1   0.0+0
$--1---><--2---><--3---><--4---><--5---><--6---><--7---><--8---><--9---><--10-->
LOAD           1   1.0+0   1.0+0       3
ENDDATA 
