$ Generated by Mecway 29
$-------------EXECUTIVE CONTROL SECTION-------------
SOL 101
CEND
$---------------CASE CONTROL SECTION----------------
DISPLACEMENT = ALL
$
  ACCELERATION(PRINT,PLOT) = ALL
  DISPLACEMENT(PRINT, PLOT) = ALL
  GPFORCE(PRINT, PLOT) = ALL
  MPCFORCES(PRINT, PLOT) = ALL
  OLOAD(PRINT, PLOT)= ALL
  SPCFORCES(PRINT, PLOT) = ALL
  FORCE(PRINT, PLOT) = ALL
  STRESS(PRINT, PLOT, CORNER)= ALL
  STRAIN(PRINT, PLOT, CORNER)= ALL
$
SPC = 1
LOAD = 1
BEGIN BULK
$-----------------BULK DATA SECTION-----------------
$
  PARAM, POST,-1
$
GRID*                  1               0          2.0+00          0.0+00*       
*                 0.0+00               0
GRID*                  2               0          3.0+00          0.0+00*       
*                 0.0+00               0
GRID*                  3               0          3.0+00          1.0+00*       
*                 0.0+00               0
GRID*                  4               0          2.0+00          1.0+00*       
*                 0.0+00               0
GRID*                  5               0          2.5+00          0.0+00*       
*                 0.0+00               0
GRID*                  6               0          3.0+00 4.3631437421-01*       
*                 0.0+00               0
GRID*                  7               0  2.436314404+00          1.0+00*       
*                 0.0+00               0
GRID*                  8               0          2.0+00 4.4541230798-01*       
*                 0.0+00               0
GRID*                  9               0 2.3771778047+00 5.7278347015-01*       
*                 0.0+00               0
GRID*                 10               0 2.1727939248+00  4.838258028-01*       
*                 0.0+00               0
GRID*                 11               0 2.4067461044+00 7.8639173508-01*       
*                 0.0+00               0
GRID*                 12               0  2.218157202+00          1.0+00*       
*                 0.0+00               0
GRID*                 13               0          2.0+00 7.2270615399-01*       
*                 0.0+00               0
GRID*                 14               0 2.2033730522+00 7.5454894453-01*       
*                 0.0+00               0
GRID*                 15               0         2.25+00          0.0+00*       
*                 0.0+00               0
GRID*                 16               0 2.4385889024+00 2.8639173508-01*       
*                 0.0+00               0
GRID*                 17               0          2.0+00 2.2270615399-01*       
*                 0.0+00               0
GRID*                 18               0 2.1782274097+00 2.3559488356-01*       
*                 0.0+00               0
GRID*                 19               0         2.75+00  2.181571871-01*       
*                 0.0+00               0
GRID*                 20               0 2.6664758921+00 5.8036506176-01*       
*                 0.0+00               0
$ ... 60 like lines cut
$--1---><------2-------><------3-------><------4-------><------5-------><--6--->
$$$$$$$$$$$$$$$$$$$$$$$$$$$$$$$$$$$$ ortho $$$$$$$$$$$$$$$$$$$$$$$$$$$$$$$$$$$$$
MAT8*                  1          1.2+11          2.0+11          2.7-01*       
*                 1.0+11          1.9+11          1.5+11          0.0+00*       
*                 0.0+00          0.0+00          0.0+00                *       
*                                                                       
$--1---><------2-------><------3-------><------4-------><------5-------><--6--->
SPC*                   1               1               1          0.0+00*       
*                                                                       
SPC*                   1               1               3          0.0+00*       
*                                                                       
SPC*                   1               1               2          0.0+00*       
*                                                                       
SPC*                   1               1               4          0.0+00*       
*                                                                       
SPC*                   1               1               6          0.0+00*       
*                                                                       
SPC*                   1               2               2          0.0+00*       
*                                                                       
SPC*                   1               2               3          0.0+00*       
*                                                                       
SPC*                   1               2               4          0.0+00*       
*                                                                       
SPC*                   1               2               6          0.0+00*       
*                                                                       
SPC*                   1               5               2          0.0+00*       
*                                                                       
SPC*                   1               5               3          0.0+00*       
*                                                                       
SPC*                   1               5               4          0.0+00*       
*                                                                       
SPC*                   1               5               6          0.0+00*       
*                                                                       
SPC*                   1              15               2          0.0+00*       
*                                                                       
SPC*                   1              15               3          0.0+00*       
*                                                                       
SPC*                   1              15               4          0.0+00*       
*                                                                       
SPC*                   1              15               6          0.0+00*       
*                                                                       
SPC*                   1              24               2          0.0+00*       
*                                                                       
SPC*                   1              24               3          0.0+00*       
*                                                                       
SPC*                   1              24               4          0.0+00*       
*                                                                       
SPC*                   1              24               6          0.0+00*       
*                                                                       
SPC*                   1              26               1          0.0+00*       
*                                                                       
SPC*                   1              26               3          0.0+00*       
*                                                                       
SPC*                   1              26               2          0.0+00*       
*                                                                       
SPC*                   1              26               4          0.0+00*       
*                                                                       
SPC*                   1              26               6          0.0+00*       
*                                                                       
SPC*                   1              27               2          0.0+00*       
*                                                                       
SPC*                   1              27               3          0.0+00*       
*                                                                       
SPC*                   1              27               4          0.0+00*       
*                                                                       
SPC*                   1              27               6          0.0+00*       
*                                                                       
SPC*                   1              30               2          0.0+00*       
*                                                                       
SPC*                   1              30               3          0.0+00*       
*                                                                       
SPC*                   1              30               4          0.0+00*       
*                                                                       
SPC*                   1              30               6          0.0+00*       
*                                                                       
SPC*                   1              40               2          0.0+00*       
*                                                                       
SPC*                   1              40               3          0.0+00*       
*                                                                       
SPC*                   1              40               4          0.0+00*       
*                                                                       
SPC*                   1              40               6          0.0+00*       
*                                                                       
SPC*                   1              49               2          0.0+00*       
*                                                                       
SPC*                   1              49               3          0.0+00*       
*                                                                       
SPC*                   1              49               4          0.0+00*       
*                                                                       
SPC*                   1              49               6          0.0+00*       
*                                                                       
$--1---><------2-------><------3-------><------4-------><------5-------><--6--->
$$$$$$$$$$$$$$$$$$$$$$$$$$$$$$$$$$$ Default $$$$$$$$$$$$$$$$$$$$$$$$$$$$$$$$$$$$
PSHELL*                1               1          3.0-01               1*       
*                                      1                          0.0+00
CQUAD4*                1               1              13              14*       
*                     12               4-8.8987406964+00          0.0+00
CQUAD4*                2               1               1              15*       
*                     18              17          0.0+00          0.0+00
CQUAD4*                3               1              15               5*       
*                     16              18          0.0+00          0.0+00
CQUAD4*                4               1              10              18*       
*                     16               9  8.874606254+01          0.0+00
CQUAD4*                5               1              17              18*       
*                     10               8-4.1362129677+00          0.0+00
CQUAD4*               10               1               9              20*       
*                     23              11-1.5011982935+00          0.0+00
CQUAD4*               11               1              20               6*       
*                     21              23 2.3359751149+01          0.0+00
CQUAD4*               12               1              23              21*       
*                      3              22 6.5611829402+00          0.0+00
CQUAD4*               17               1              16               5*       
*                     24              19 7.7897316585+01          0.0+00
CQUAD4*               18               1              24               2*       
*                     25              19          0.0+00          0.0+00
CQUAD4*               19               1              25               6*       
*                     20              19         -9.0+01          0.0+00
CQUAD4*               20               1              20               9*       
*                     16              19 1.7849880171+02          0.0+00
CQUAD4*               41               1              11              23*       
*                     22               7 6.5611829402+00          0.0+00
CQUAD4*               46               1               8              10*       
*                     14              13-1.2533498312+01          0.0+00
CQUAD4*               47               1              14              10*       
*                      9              11 9.6444444532+01          0.0+00
CQUAD4*               48               1              14              11*       
*                      7              12-8.8987406964+00          0.0+00
PSHELL*                2               1          3.0-01               1*       
*                                      1                          0.0+00
CTRIA3*                6               2              42              43*       
*                     35-4.1362129677+00          0.0+00
CTRIA3*                7               2              34              45*       
*                     48-1.5011982935+00          0.0+00
CTRIA3*                8               2              45              31*       
*                     46 2.3359751149+01          0.0+00
CTRIA3*                9               2              48              46*       
*                     28 6.5611829402+00          0.0+00
CTRIA3*               13               2              36              48*       
*                     47 6.5611829402+00          0.0+00
CTRIA3*               14               2              33              35*       
*                     39-1.2533498312+01          0.0+00
CTRIA3*               15               2              39              35*       
*                     34 9.6444444532+01          0.0+00
CTRIA3*               16               2              39              36*       
*                     32-8.8987406964+00          0.0+00
CTRIA3*               21               2              36              47*       
*                     32-3.4447651714+01          0.0+00
CTRIA3*               22               2              44              30*       
*                     49 1.3889111411+02          0.0+00
CTRIA3*               23               2              49              27*       
*                     50          0.0+00          0.0+00
CTRIA3*               24               2              44              50*       
*                     31          0.0+00          0.0+00
CTRIA3*               25               2              44              49*       
*                     50          9.0+01          0.0+00
CTRIA3*               26               2              33              39*       
*                     38-5.6660109397+01          0.0+00
CTRIA3*               27               2              39              34*       
*                     36 4.6282558389+01          0.0+00
CTRIA3*               28               2              39              32*       
*                     37-4.6497912397+01          0.0+00
CTRIA3*               29               2              38              37*       
*                     29-5.1806577104+01          0.0+00
CTRIA3*               30               2              26              43*       
*                     42-5.2892513128+01          0.0+00
CTRIA3*               31               2              40              41*       
*                     43-5.6635103838+01          0.0+00
CTRIA3*               32               2              35              41*       
$ ... 25 like lines cut
$--1---><------2-------><------3-------><------4-------><------5-------><--6--->
$$$$$$$$$$$$$$$$$$$$$$$$$$$$$$$$$$$$ force $$$$$$$$$$$$$$$$$$$$$$$$$$$$$$$$$$$$$
FORCE*                 1              32               0          1.0+00*       
*                 0.0+00          2.5+06          2.5+05
FORCE*                 1              37               0          1.0+00*       
*                 0.0+00 2.1815720201+06 2.1815720201+05
FORCE*                 1              29               0          1.0+00*       
*                 0.0+00   1.09078601+06   1.09078601+05
FORCE*                 1              28               0          1.0+00*       
*                 0.0+00   1.40921399+06   1.40921399+05
FORCE*                 1              47               0          1.0+00*       
*                 0.0+00 2.8184279799+06 2.8184279799+05
FORCE*                 1              22               0          1.0+00*       
*                 0.0+00 2.8184279799+06 2.8184279799+05
FORCE*                 1               7               0          1.0+00*       
*                 0.0+00          2.5+06          2.5+05
FORCE*                 1              12               0          1.0+00*       
*                 0.0+00 2.1815720201+06 2.1815720201+05
FORCE*                 1               4               0          1.0+00*       
*                 0.0+00   1.09078601+06   1.09078601+05
FORCE*                 1               3               0          1.0+00*       
*                 0.0+00   1.40921399+06   1.40921399+05
$--1---><------2-------><------3-------><------4-------><------5-------><--6--->
ENDDATA
