$ Generated by Mecway 29
$-------------EXECUTIVE CONTROL SECTION-------------
SOL 101
CEND
$---------------CASE CONTROL SECTION----------------
DISPLACEMENT = ALL
$
  ACCELERATION(PRINT,PLOT) = ALL
  DISPLACEMENT(PRINT, PLOT) = ALL
  GPFORCE(PRINT, PLOT) = ALL
  MPCFORCES(PRINT, PLOT) = ALL
  OLOAD(PRINT, PLOT)= ALL
  SPCFORCES(PRINT, PLOT) = ALL
  FORCE(PRINT, PLOT) = ALL
  STRESS(PRINT, PLOT, CORNER)= ALL
  STRAIN(PRINT, PLOT, CORNER)= ALL
$
SPC = 1
TEMPERATURE = 1
BEGIN BULK
$-----------------BULK DATA SECTION-----------------
$
  PARAM, POST,-1
$
GRID*                  1               0 2.4492127076-16          0.0+00*       
*                -2.0+00               0
GRID*                  2               0 3.6738190615-16          0.0+00*       
*                -3.0+00               0
GRID*                  3               0 3.6738190615-16          1.0+00*       
*                -3.0+00               1
GRID*                  4               0 2.4492127076-16          1.0+00*       
*                -2.0+00               0
GRID*                  5               0 3.0615158846-16          0.0+00*       
*                -2.5+00               0
GRID*                  6               0 3.6738190615-16 4.3631437421-01*       
*                -3.0+00               0
GRID*                  7               0 2.9835260991-16          1.0+00*       
*        -2.436314404+00               0
GRID*                  8               0 2.4492127076-16 4.4541230798-01*       
*                -2.0+00               0
GRID*                  9               0 2.9111070438-16 5.7278347015-01*       
*       -2.3771778047+00               0
GRID*                 10               0 2.6608172459-16  4.838258028-01*       
*       -2.1727939248+00               0
GRID*                 11               0 2.9473165714-16 7.8639173508-01*       
*       -2.4067461044+00               0
GRID*                 12               0 2.7163694034-16          1.0+00*       
*        -2.218157202+00               0
GRID*                 13               0 2.4492127076-16 7.2270615399-01*       
*                -2.0+00               0
GRID*                 14               0 2.6982646395-16 7.5454894453-01*       
*       -2.2033730522+00               0
GRID*                 15               0 2.7553642961-16          0.0+00*       
*               -2.25+00               0
GRID*                 16               0 2.9863114642-16 2.8639173508-01*       
*       -2.4385889024+00               0
GRID*                 17               0 2.4492127076-16 2.2270615399-01*       
*                -2.0+00               0
GRID*                 18               0  2.667471126-16 2.3559488356-01*       
*       -2.1782274097+00               0
GRID*                 19               0  3.367667473-16  2.181571871-01*       
*               -2.75+00               0
GRID*                 20               0 3.2653833197-16 5.8036506176-01*       
*       -2.6664758921+00               0
$ ... 60 like lines cut
$--1---><------2-------><------3-------><------4-------><------5-------><--6--->
$$$$$$$$$$$$$$$$$$$$$$$$$$$$$$$$$$$$ ortho $$$$$$$$$$$$$$$$$$$$$$$$$$$$$$$$$$$$$
MAT8*                  1          2.0+11          2.0+11          0.0+00*       
*                 1.0+11          1.0+11          1.0+11          0.0+00*       
*                 1.1+00          2.5+00       2.7315+02                *       
*                                                                       
$--1---><------2-------><------3-------><------4-------><------5-------><--6--->
CORD2R*                1               0          0.0+00          0.0+00*       
*                 0.0+00          0.0+00-7.0710678119-01 7.0710678119-01*       
*                 1.0+00          0.0+00          0.0+00                *       
*                                                                       
SPC*                   1               1               1          0.0+00*       
*                                                                       
SPC*                   1               1               2          0.0+00*       
*                                                                       
SPC*                   1               1               3          0.0+00*       
*                                                                       
SPC*                   1               3               2          0.0+00*       
*                                                                       
SPC*                   1               3               1          0.0+00*       
*                                                                       
SPC*                   1               4               1          0.0+00*       
*                                                                       
SPC*                   1              26               1          0.0+00*       
*                                                                       
SPC*                   1              26               2          0.0+00*       
*                                                                       
SPC*                   1              26               3          0.0+00*       
*                                                                       
SPC*                   1              28               2          0.0+00*       
*                                                                       
SPC*                   1              28               1          0.0+00*       
*                                                                       
SPC*                   1              29               1          0.0+00*       
*                                                                       
$--1---><------2-------><------3-------><------4-------><------5-------><--6--->
$$$$$$$$$$$$$$$$$$$$$$$$$$$$$$$$$$$ Default $$$$$$$$$$$$$$$$$$$$$$$$$$$$$$$$$$$$
PSHELL*                2               1          3.0-01               1*       
*                                      1                          0.0+00
CQUAD4*                1               2              13              14*       
*                     12               4               3          0.0+00
CORD2R*                3               0          0.0+00          0.0+00*       
*                 0.0+00 9.9503719021-02 9.9503719021-01          0.0+00*       
*                 1.0+01         -1.0+00         -1.0+00                *       
*                                                                       
CQUAD4*                2               2               1              15*       
*                     18              17               4          0.0+00
CORD2R*                4               0          0.0+00          0.0+00*       
*                 0.0+00 9.9503719021-02 9.9503719021-01          0.0+00*       
*                 1.0+01         -1.0+00         -1.0+00                *       
*                                                                       
CQUAD4*                3               2              15               5*       
*                     16              18               5          0.0+00
CORD2R*                5               0          0.0+00          0.0+00*       
*                 0.0+00 9.9503719021-02 9.9503719021-01          0.0+00*       
*                 1.0+01         -1.0+00         -1.0+00                *       
*                                                                       
CQUAD4*                4               2              10              18*       
*                     16               9               6          0.0+00
CORD2R*                6               0          0.0+00          0.0+00*       
*                 0.0+00 9.9503719021-02 9.9503719021-01          0.0+00*       
*                 1.0+01         -1.0+00         -1.0+00                *       
*                                                                       
CQUAD4*                5               2              17              18*       
*                     10               8               7          0.0+00
CORD2R*                7               0          0.0+00          0.0+00*       
*                 0.0+00 9.9503719021-02 9.9503719021-01          0.0+00*       
*                 1.0+01         -1.0+00         -1.0+00                *       
*                                                                       
CQUAD4*               10               2               9              20*       
*                     23              11               8          0.0+00
CORD2R*                8               0          0.0+00          0.0+00*       
*                 0.0+00 9.9503719021-02 9.9503719021-01          0.0+00*       
*                 1.0+01         -1.0+00         -1.0+00                *       
*                                                                       
CQUAD4*               11               2              20               6*       
*                     21              23               9          0.0+00
CORD2R*                9               0          0.0+00          0.0+00*       
*                 0.0+00 9.9503719021-02 9.9503719021-01          0.0+00*       
*                 1.0+01         -1.0+00         -1.0+00                *       
*                                                                       
CQUAD4*               12               2              23              21*       
*                      3              22              10          0.0+00
CORD2R*               10               0          0.0+00          0.0+00*       
*                 0.0+00 9.9503719021-02 9.9503719021-01          0.0+00*       
*                 1.0+01         -1.0+00         -1.0+00                *       
*                                                                       
CQUAD4*               17               2              16               5*       
*                     24              19              11          0.0+00
CORD2R*               11               0          0.0+00          0.0+00*       
*                 0.0+00 9.9503719021-02 9.9503719021-01          0.0+00*       
*                 1.0+01         -1.0+00         -1.0+00                *       
*                                                                       
CQUAD4*               18               2              24               2*       
*                     25              19              12          0.0+00
CORD2R*               12               0          0.0+00          0.0+00*       
*                 0.0+00 9.9503719021-02 9.9503719021-01          0.0+00*       
*                 1.0+01         -1.0+00         -1.0+00                *       
*                                                                       
CQUAD4*               19               2              25               6*       
*                     20              19              13          0.0+00
CORD2R*               13               0          0.0+00          0.0+00*       
*                 0.0+00 9.9503719021-02 9.9503719021-01          0.0+00*       
*                 1.0+01         -1.0+00         -1.0+00                *       
*                                                                       
CQUAD4*               20               2              20               9*       
*                     16              19              14          0.0+00
CORD2R*               14               0          0.0+00          0.0+00*       
*                 0.0+00 9.9503719021-02 9.9503719021-01          0.0+00*       
*                 1.0+01         -1.0+00         -1.0+00                *       
*                                                                       
CQUAD4*               41               2              11              23*       
*                     22               7              15          0.0+00
CORD2R*               15               0          0.0+00          0.0+00*       
*                 0.0+00 9.9503719021-02 9.9503719021-01          0.0+00*       
*                 1.0+01         -1.0+00         -1.0+00                *       
*                                                                       
CQUAD4*               46               2               8              10*       
*                     14              13              16          0.0+00
CORD2R*               16               0          0.0+00          0.0+00*       
*                 0.0+00 9.9503719021-02 9.9503719021-01          0.0+00*       
*                 1.0+01         -1.0+00         -1.0+00                *       
*                                                                       
CQUAD4*               47               2              14              10*       
*                      9              11              17          0.0+00
CORD2R*               17               0          0.0+00          0.0+00*       
*                 0.0+00 9.9503719021-02 9.9503719021-01          0.0+00*       
*                 1.0+01         -1.0+00         -1.0+00                *       
*                                                                       
CQUAD4*               48               2              14              11*       
*                      7              12              18          0.0+00
CORD2R*               18               0          0.0+00          0.0+00*       
*                 0.0+00 9.9503719021-02 9.9503719021-01          0.0+00*       
*                 1.0+01         -1.0+00         -1.0+00                *       
*                                                                       
PSHELL*               19               1          3.0-01               1*       
*                                      1                          0.0+00
CTRIA3*                6              19              42              43*       
*                     35              20          0.0+00
CORD2R*               20               0          0.0+00          0.0+00*       
*                 0.0+00 9.9503719021-02 9.9503719021-01          0.0+00*       
*                 1.0+01         -1.0+00         -1.0+00                *       
*                                                                       
CTRIA3*                7              19              34              45*       
*                     48              21          0.0+00
CORD2R*               21               0          0.0+00          0.0+00*       
*                 0.0+00 9.9503719021-02 9.9503719021-01          0.0+00*       
*                 1.0+01         -1.0+00         -1.0+00                *       
*                                                                       
CTRIA3*                8              19              45              31*       
*                     46              22          0.0+00
CORD2R*               22               0          0.0+00          0.0+00*       
*                 0.0+00 9.9503719021-02 9.9503719021-01          0.0+00*       
*                 1.0+01         -1.0+00         -1.0+00                *       
*                                                                       
CTRIA3*                9              19              48              46*       
*                     28              23          0.0+00
CORD2R*               23               0          0.0+00          0.0+00*       
*                 0.0+00 9.9503719021-02 9.9503719021-01          0.0+00*       
*                 1.0+01         -1.0+00         -1.0+00                *       
*                                                                       
CTRIA3*               13              19              36              48*       
*                     47              24          0.0+00
CORD2R*               24               0          0.0+00          0.0+00*       
*                 0.0+00 9.9503719021-02 9.9503719021-01          0.0+00*       
*                 1.0+01         -1.0+00         -1.0+00                *       
*                                                                       
CTRIA3*               14              19              33              35*       
*                     39              25          0.0+00
CORD2R*               25               0          0.0+00          0.0+00*       
*                 0.0+00 9.9503719021-02 9.9503719021-01          0.0+00*       
*                 1.0+01         -1.0+00         -1.0+00                *       
*                                                                       
CTRIA3*               15              19              39              35*       
*                     34              26          0.0+00
CORD2R*               26               0          0.0+00          0.0+00*       
*                 0.0+00 9.9503719021-02 9.9503719021-01          0.0+00*       
*                 1.0+01         -1.0+00         -1.0+00                *       
*                                                                       
CTRIA3*               16              19              39              36*       
*                     32              27          0.0+00
CORD2R*               27               0          0.0+00          0.0+00*       
*                 0.0+00 9.9503719021-02 9.9503719021-01          0.0+00*       
*                 1.0+01         -1.0+00         -1.0+00                *       
*                                                                       
CTRIA3*               21              19              36              47*       
*                     32              28          0.0+00
CORD2R*               28               0          0.0+00          0.0+00*       
*                 0.0+00 9.9503719021-02 9.9503719021-01          0.0+00*       
*                 1.0+01         -1.0+00         -1.0+00                *       
*                                                                       
CTRIA3*               22              19              44              30*       
*                     49              29          0.0+00
CORD2R*               29               0          0.0+00          0.0+00*       
*                 0.0+00 9.9503719021-02 9.9503719021-01          0.0+00*       
*                 1.0+01         -1.0+00         -1.0+00                *       
*                                                                       
CTRIA3*               23              19              49              27*       
*                     50              30          0.0+00
CORD2R*               30               0          0.0+00          0.0+00*       
*                 0.0+00 9.9503719021-02 9.9503719021-01          0.0+00*       
*                 1.0+01         -1.0+00         -1.0+00                *       
*                                                                       
CTRIA3*               24              19              44              50*       
*                     31              31          0.0+00
CORD2R*               31               0          0.0+00          0.0+00*       
*                 0.0+00 9.9503719021-02 9.9503719021-01          0.0+00*       
*                 1.0+01         -1.0+00         -1.0+00                *       
*                                                                       
CTRIA3*               25              19              44              49*       
*                     50              32          0.0+00
CORD2R*               32               0          0.0+00          0.0+00*       
*                 0.0+00 9.9503719021-02 9.9503719021-01          0.0+00*       
*                 1.0+01         -1.0+00         -1.0+00                *       
*                                                                       
CTRIA3*               26              19              33              39*       
*                     38              33          0.0+00
CORD2R*               33               0          0.0+00          0.0+00*       
*                 0.0+00 9.9503719021-02 9.9503719021-01          0.0+00*       
*                 1.0+01         -1.0+00         -1.0+00                *       
*                                                                       
CTRIA3*               27              19              39              34*       
*                     36              34          0.0+00
CORD2R*               34               0          0.0+00          0.0+00*       
*                 0.0+00 9.9503719021-02 9.9503719021-01          0.0+00*       
*                 1.0+01         -1.0+00         -1.0+00                *       
*                                                                       
CTRIA3*               28              19              39              32*       
*                     37              35          0.0+00
CORD2R*               35               0          0.0+00          0.0+00*       
*                 0.0+00 9.9503719021-02 9.9503719021-01          0.0+00*       
*                 1.0+01         -1.0+00         -1.0+00                *       
*                                                                       
CTRIA3*               29              19              38              37*       
*                     29              36          0.0+00
CORD2R*               36               0          0.0+00          0.0+00*       
*                 0.0+00 9.9503719021-02 9.9503719021-01          0.0+00*       
*                 1.0+01         -1.0+00         -1.0+00                *       
*                                                                       
CTRIA3*               30              19              26              43*       
*                     42              37          0.0+00
CORD2R*               37               0          0.0+00          0.0+00*       
*                 0.0+00 9.9503719021-02 9.9503719021-01          0.0+00*       
*                 1.0+01         -1.0+00         -1.0+00                *       
*                                                                       
CTRIA3*               31              19              40              41*       
*                     43              38          0.0+00
CORD2R*               38               0          0.0+00          0.0+00*       
*                 0.0+00 9.9503719021-02 9.9503719021-01          0.0+00*       
*                 1.0+01         -1.0+00         -1.0+00                *       
*                                                                       
CTRIA3*               32              19              35              41*       
*                     34              39          0.0+00
CORD2R*               39               0          0.0+00          0.0+00*       
*                 0.0+00 9.9503719021-02 9.9503719021-01          0.0+00*       
*                 1.0+01         -1.0+00         -1.0+00                *       
*                                                                       
CTRIA3*               33              19              42              35*       
*                     33              40          0.0+00
CORD2R*               40               0          0.0+00          0.0+00*       
*                 0.0+00 9.9503719021-02 9.9503719021-01          0.0+00*       
*                 1.0+01         -1.0+00         -1.0+00                *       
*                                                                       
CTRIA3*               34              19              30              44*       
*                     41              41          0.0+00
CORD2R*               41               0          0.0+00          0.0+00*       
*                 0.0+00 9.9503719021-02 9.9503719021-01          0.0+00*       
*                 1.0+01         -1.0+00         -1.0+00                *       
*                                                                       
CTRIA3*               35              19              44              31*       
*                     45              42          0.0+00
CORD2R*               42               0          0.0+00          0.0+00*       
*                 0.0+00 9.9503719021-02 9.9503719021-01          0.0+00*       
*                 1.0+01         -1.0+00         -1.0+00                *       
*                                                                       
CTRIA3*               36              19              41              45*       
*                     34              43          0.0+00
CORD2R*               43               0          0.0+00          0.0+00*       
*                 0.0+00 9.9503719021-02 9.9503719021-01          0.0+00*       
*                 1.0+01         -1.0+00         -1.0+00                *       
*                                                                       
CTRIA3*               37              19              41              44*       
*                     45              44          0.0+00
CORD2R*               44               0          0.0+00          0.0+00*       
*                 0.0+00 9.9503719021-02 9.9503719021-01          0.0+00*       
*                 1.0+01         -1.0+00         -1.0+00                *       
*                                                                       
CTRIA3*               38              19              34              48*       
*                     36              45          0.0+00
CORD2R*               45               0          0.0+00          0.0+00*       
*                 0.0+00 9.9503719021-02 9.9503719021-01          0.0+00*       
*                 1.0+01         -1.0+00         -1.0+00                *       
*                                                                       
CTRIA3*               39              19              45              46*       
*                     48              46          0.0+00
CORD2R*               46               0          0.0+00          0.0+00*       
*                 0.0+00 9.9503719021-02 9.9503719021-01          0.0+00*       
*                 1.0+01         -1.0+00         -1.0+00                *       
*                                                                       
CTRIA3*               40              19              48              28*       
*                     47              47          0.0+00
CORD2R*               47               0          0.0+00          0.0+00*       
*                 0.0+00 9.9503719021-02 9.9503719021-01          0.0+00*       
*                 1.0+01         -1.0+00         -1.0+00                *       
*                                                                       
CTRIA3*               42              19              38              39*       
*                     37              48          0.0+00
CORD2R*               48               0          0.0+00          0.0+00*       
*                 0.0+00 9.9503719021-02 9.9503719021-01          0.0+00*       
*                 1.0+01         -1.0+00         -1.0+00                *       
*                                                                       
CTRIA3*               43              19              26              40*       
*                     43              49          0.0+00
CORD2R*               49               0          0.0+00          0.0+00*       
*                 0.0+00 9.9503719021-02 9.9503719021-01          0.0+00*       
*                 1.0+01         -1.0+00         -1.0+00                *       
*                                                                       
CTRIA3*               44              19              40              30*       
*                     41              50          0.0+00
CORD2R*               50               0          0.0+00          0.0+00*       
*                 0.0+00 9.9503719021-02 9.9503719021-01          0.0+00*       
*                 1.0+01         -1.0+00         -1.0+00                *       
*                                                                       
CTRIA3*               45              19              35              43*       
*                     41              51          0.0+00
CORD2R*               51               0          0.0+00          0.0+00*       
*                 0.0+00 9.9503719021-02 9.9503719021-01          0.0+00*       
*                 1.0+01         -1.0+00         -1.0+00                *       
*                                                                       
$--1---><------2-------><------3-------><------4-------><------5-------><--6--->
$$$$$$$$$$$$$$$$$$$$$$$$$$$$$$$$$ temperature $$$$$$$$$$$$$$$$$$$$$$$$$$$$$$$$$$
TEMP*                  1              13       2.7415+02                *       
*                                                                       
TEMP*                  1              14       2.7415+02                *       
*                                                                       
TEMP*                  1              12       2.7415+02                *       
*                                                                       
TEMP*                  1               4       2.7415+02                *       
*                                                                       
TEMP*                  1               1       2.7415+02                *       
*                                                                       
TEMP*                  1              15       2.7415+02                *       
*                                                                       
TEMP*                  1              18       2.7415+02                *       
*                                                                       
TEMP*                  1              17       2.7415+02                *       
*                                                                       
TEMP*                  1              15       2.7415+02                *       
*                                                                       
TEMP*                  1               5       2.7415+02                *       
*                                                                       
TEMP*                  1              16       2.7415+02                *       
*                                                                       
TEMP*                  1              18       2.7415+02                *       
*                                                                       
TEMP*                  1              10       2.7415+02                *       
*                                                                       
TEMP*                  1              18       2.7415+02                *       
*                                                                       
TEMP*                  1              16       2.7415+02                *       
*                                                                       
TEMP*                  1               9       2.7415+02                *       
*                                                                       
TEMP*                  1              17       2.7415+02                *       
*                                                                       
TEMP*                  1              18       2.7415+02                *       
*                                                                       
TEMP*                  1              10       2.7415+02                *       
*                                                                       
TEMP*                  1               8       2.7415+02                *       
*                                                                       
TEMP*                  1              42       2.7415+02                *       
*                                                                       
TEMP*                  1              43       2.7415+02                *       
*                                                                       
TEMP*                  1              35       2.7415+02                *       
*                                                                       
TEMP*                  1              34       2.7415+02                *       
*                                                                       
TEMP*                  1              45       2.7415+02                *       
*                                                                       
TEMP*                  1              48       2.7415+02                *       
*                                                                       
TEMP*                  1              45       2.7415+02                *       
*                                                                       
TEMP*                  1              31       2.7415+02                *       
*                                                                       
TEMP*                  1              46       2.7415+02                *       
*                                                                       
TEMP*                  1              48       2.7415+02                *       
*                                                                       
TEMP*                  1              46       2.7415+02                *       
*                                                                       
TEMP*                  1              28       2.7415+02                *       
*                                                                       
TEMP*                  1               9       2.7415+02                *       
*                                                                       
TEMP*                  1              20       2.7415+02                *       
*                                                                       
TEMP*                  1              23       2.7415+02                *       
*                                                                       
TEMP*                  1              11       2.7415+02                *       
*                                                                       
TEMP*                  1              20       2.7415+02                *       
*                                                                       
TEMP*                  1               6       2.7415+02                *       
*                                                                       
TEMP*                  1              21       2.7415+02                *       
*                                                                       
TEMP*                  1              23       2.7415+02                *       
*                                                                       
TEMP*                  1              23       2.7415+02                *       
*                                                                       
TEMP*                  1              21       2.7415+02                *       
*                                                                       
TEMP*                  1               3       2.7415+02                *       
*                                                                       
TEMP*                  1              22       2.7415+02                *       
*                                                                       
TEMP*                  1              36       2.7415+02                *       
*                                                                       
TEMP*                  1              48       2.7415+02                *       
*                                                                       
TEMP*                  1              47       2.7415+02                *       
*                                                                       
TEMP*                  1              33       2.7415+02                *       
*                                                                       
TEMP*                  1              35       2.7415+02                *       
*                                                                       
TEMP*                  1              39       2.7415+02                *       
*                                                                       
TEMP*                  1              39       2.7415+02                *       
*                                                                       
TEMP*                  1              35       2.7415+02                *       
*                                                                       
TEMP*                  1              34       2.7415+02                *       
*                                                                       
TEMP*                  1              39       2.7415+02                *       
*                                                                       
TEMP*                  1              36       2.7415+02                *       
*                                                                       
TEMP*                  1              32       2.7415+02                *       
*                                                                       
TEMP*                  1              16       2.7415+02                *       
*                                                                       
TEMP*                  1               5       2.7415+02                *       
*                                                                       
TEMP*                  1              24       2.7415+02                *       
*                                                                       
TEMP*                  1              19       2.7415+02                *       
*                                                                       
TEMP*                  1              24       2.7415+02                *       
*                                                                       
TEMP*                  1               2       2.7415+02                *       
*                                                                       
TEMP*                  1              25       2.7415+02                *       
*                                                                       
TEMP*                  1              19       2.7415+02                *       
*                                                                       
TEMP*                  1              25       2.7415+02                *       
*                                                                       
TEMP*                  1               6       2.7415+02                *       
*                                                                       
TEMP*                  1              20       2.7415+02                *       
*                                                                       
TEMP*                  1              19       2.7415+02                *       
*                                                                       
TEMP*                  1              20       2.7415+02                *       
*                                                                       
TEMP*                  1               9       2.7415+02                *       
*                                                                       
TEMP*                  1              16       2.7415+02                *       
*                                                                       
TEMP*                  1              19       2.7415+02                *       
*                                                                       
TEMP*                  1              36       2.7415+02                *       
*                                                                       
TEMP*                  1              47       2.7415+02                *       
*                                                                       
TEMP*                  1              32       2.7415+02                *       
*                                                                       
TEMP*                  1              44       2.7415+02                *       
*                                                                       
TEMP*                  1              30       2.7415+02                *       
*                                                                       
TEMP*                  1              49       2.7415+02                *       
*                                                                       
TEMP*                  1              49       2.7415+02                *       
*                                                                       
TEMP*                  1              27       2.7415+02                *       
*                                                                       
TEMP*                  1              50       2.7415+02                *       
*                                                                       
TEMP*                  1              44       2.7415+02                *       
*                                                                       
TEMP*                  1              50       2.7415+02                *       
*                                                                       
TEMP*                  1              31       2.7415+02                *       
*                                                                       
TEMP*                  1              44       2.7415+02                *       
*                                                                       
TEMP*                  1              49       2.7415+02                *       
*                                                                       
TEMP*                  1              50       2.7415+02                *       
*                                                                       
TEMP*                  1              33       2.7415+02                *       
*                                                                       
TEMP*                  1              39       2.7415+02                *       
*                                                                       
TEMP*                  1              38       2.7415+02                *       
*                                                                       
TEMP*                  1              39       2.7415+02                *       
*                                                                       
TEMP*                  1              34       2.7415+02                *       
*                                                                       
TEMP*                  1              36       2.7415+02                *       
*                                                                       
TEMP*                  1              39       2.7415+02                *       
*                                                                       
TEMP*                  1              32       2.7415+02                *       
*                                                                       
TEMP*                  1              37       2.7415+02                *       
*                                                                       
TEMP*                  1              38       2.7415+02                *       
*                                                                       
TEMP*                  1              37       2.7415+02                *       
*                                                                       
TEMP*                  1              29       2.7415+02                *       
*                                                                       
TEMP*                  1              26       2.7415+02                *       
*                                                                       
TEMP*                  1              43       2.7415+02                *       
*                                                                       
TEMP*                  1              42       2.7415+02                *       
*                                                                       
TEMP*                  1              40       2.7415+02                *       
*                                                                       
TEMP*                  1              41       2.7415+02                *       
*                                                                       
TEMP*                  1              43       2.7415+02                *       
*                                                                       
TEMP*                  1              35       2.7415+02                *       
*                                                                       
TEMP*                  1              41       2.7415+02                *       
*                                                                       
TEMP*                  1              34       2.7415+02                *       
*                                                                       
TEMP*                  1              42       2.7415+02                *       
*                                                                       
TEMP*                  1              35       2.7415+02                *       
*                                                                       
TEMP*                  1              33       2.7415+02                *       
*                                                                       
TEMP*                  1              30       2.7415+02                *       
*                                                                       
TEMP*                  1              44       2.7415+02                *       
*                                                                       
TEMP*                  1              41       2.7415+02                *       
*                                                                       
TEMP*                  1              44       2.7415+02                *       
*                                                                       
TEMP*                  1              31       2.7415+02                *       
*                                                                       
TEMP*                  1              45       2.7415+02                *       
*                                                                       
TEMP*                  1              41       2.7415+02                *       
*                                                                       
TEMP*                  1              45       2.7415+02                *       
*                                                                       
TEMP*                  1              34       2.7415+02                *       
*                                                                       
TEMP*                  1              41       2.7415+02                *       
*                                                                       
TEMP*                  1              44       2.7415+02                *       
*                                                                       
TEMP*                  1              45       2.7415+02                *       
*                                                                       
TEMP*                  1              34       2.7415+02                *       
*                                                                       
TEMP*                  1              48       2.7415+02                *       
*                                                                       
TEMP*                  1              36       2.7415+02                *       
*                                                                       
TEMP*                  1              45       2.7415+02                *       
*                                                                       
TEMP*                  1              46       2.7415+02                *       
*                                                                       
TEMP*                  1              48       2.7415+02                *       
*                                                                       
TEMP*                  1              48       2.7415+02                *       
*                                                                       
TEMP*                  1              28       2.7415+02                *       
*                                                                       
TEMP*                  1              47       2.7415+02                *       
*                                                                       
TEMP*                  1              11       2.7415+02                *       
*                                                                       
TEMP*                  1              23       2.7415+02                *       
*                                                                       
TEMP*                  1              22       2.7415+02                *       
*                                                                       
TEMP*                  1               7       2.7415+02                *       
*                                                                       
TEMP*                  1              38       2.7415+02                *       
*                                                                       
TEMP*                  1              39       2.7415+02                *       
*                                                                       
TEMP*                  1              37       2.7415+02                *       
*                                                                       
TEMP*                  1              26       2.7415+02                *       
*                                                                       
TEMP*                  1              40       2.7415+02                *       
*                                                                       
TEMP*                  1              43       2.7415+02                *       
*                                                                       
TEMP*                  1              40       2.7415+02                *       
*                                                                       
TEMP*                  1              30       2.7415+02                *       
*                                                                       
TEMP*                  1              41       2.7415+02                *       
*                                                                       
TEMP*                  1              35       2.7415+02                *       
*                                                                       
TEMP*                  1              43       2.7415+02                *       
*                                                                       
TEMP*                  1              41       2.7415+02                *       
*                                                                       
TEMP*                  1               8       2.7415+02                *       
*                                                                       
TEMP*                  1              10       2.7415+02                *       
*                                                                       
TEMP*                  1              14       2.7415+02                *       
*                                                                       
TEMP*                  1              13       2.7415+02                *       
*                                                                       
TEMP*                  1              14       2.7415+02                *       
*                                                                       
TEMP*                  1              10       2.7415+02                *       
*                                                                       
TEMP*                  1               9       2.7415+02                *       
*                                                                       
TEMP*                  1              11       2.7415+02                *       
*                                                                       
TEMP*                  1              14       2.7415+02                *       
*                                                                       
TEMP*                  1              11       2.7415+02                *       
*                                                                       
TEMP*                  1               7       2.7415+02                *       
*                                                                       
TEMP*                  1              12       2.7415+02                *       
*                                                                       
$--1---><------2-------><------3-------><------4-------><------5-------><--6--->
TEMPD*                 1       2.7315+02                                *       
*                                                                       
$--1---><------2-------><------3-------><------4-------><------5-------><--6--->
ENDDATA
