$ Generated by Mecway 29
$-------------EXECUTIVE CONTROL SECTION-------------
SOL 105
CEND
$---------------CASE CONTROL SECTION----------------
DISPLACEMENT = ALL
$
  ACCELERATION(PRINT,PLOT) = ALL
  DISPLACEMENT(PRINT, PLOT) = ALL
  GPFORCE(PRINT, PLOT) = ALL
  MPCFORCES(PRINT, PLOT) = ALL
  OLOAD(PRINT, PLOT)= ALL
  SPCFORCES(PRINT, PLOT) = ALL
  FORCE(PRINT, PLOT) = ALL
  STRESS(PRINT, PLOT, CORNER)= ALL
  STRAIN(PRINT, PLOT, CORNER)= ALL
$
SPC = 1
SUBCASE 1
LOAD = 1
SUBCASE 2
METHOD = 1
BEGIN BULK
$-----------------BULK DATA SECTION-----------------
$
  PARAM, POST,-1
$
GRID*                  1               0          0.0+00          0.0+00*       
*                 0.0+00               0
GRID*                  2               0          5.0+01          0.0+00*       
*                 0.0+00               0
GRID*                  3               0          5.0+01          1.0+01*       
*                 0.0+00               0
GRID*                  4               0          0.0+00          1.0+01*       
*                 0.0+00               0
GRID*                  5               0          1.1+01          0.0+00*       
*                 0.0+00               0
GRID*                  6               0          9.0+00          1.0+01*       
*                 0.0+00               0
GRID*                  7               0          2.1+01          0.0+00*       
*                 0.0+00               0
GRID*                  8               0         1.85+01          1.0+01*       
*                 0.0+00               0
GRID*                  9               0          3.1+01          0.0+00*       
*                 0.0+00               0
GRID*                 10               0          2.9+01          1.0+01*       
*                 0.0+00               0
GRID*                 11               0          4.1+01          0.0+00*       
*                 0.0+00               0
GRID*                 12               0          3.9+01          1.0+01*       
*                 0.0+00               0
GRID*                 13               0          4.5+01          0.0+00*       
*                 0.0+00               0
GRID*                 14               0          5.0+01          5.0+00*       
*                 0.0+00               0
GRID*                 15               0          4.5+01          1.0+01*       
*                 0.0+00               0
GRID*                 16               0 3.9962019383+01 5.4341204442+00*       
*                 0.0+00               0
GRID*                 17               0          4.5+01          5.0+00*       
*                 0.0+00               0
GRID*                 18               0          5.0+00          0.0+00*       
*                 0.0+00               0
GRID*                 19               0          1.0+01          5.0+00*       
*                 0.0+00               0
GRID*                 20               0          5.0+00          1.0+01*       
*                 0.0+00               0
$ ... 698 like lines cut
$--1---><------2-------><------3-------><------4-------><------5-------><--6--->
$$$$$$$$$$$$$$$$$$$$$$$$$$$$$$$$$$$ Material $$$$$$$$$$$$$$$$$$$$$$$$$$$$$$$$$$$
MAT8*                  1          2.7+07          1.5+06          3.5-01*       
*                 1.1+06          1.1+06          1.1+06          0.0+00*       
*                 0.0+00          0.0+00          0.0+00                *       
*                                                                       
MAT8*                  2          2.7+07          1.5+06          3.5-01*       
*                 1.1+06          1.1+06          1.1+06          0.0+00*       
*                 0.0+00          0.0+00          0.0+00                *       
*                                                                       
MAT8*                  3          2.7+07          1.5+06          3.5-01*       
*                 1.1+06          1.1+06          1.1+06          0.0+00*       
*                 0.0+00          0.0+00          0.0+00                *       
*                                                                       
MAT8*                  4          2.7+07          1.5+06          3.5-01*       
*                 1.1+06          1.1+06          1.1+06          0.0+00*       
*                 0.0+00          0.0+00          0.0+00                *       
*                                                                       
MAT8*                  5          2.7+07          1.5+06          3.5-01*       
*                 1.1+06          1.1+06          1.1+06          0.0+00*       
*                 0.0+00          0.0+00          0.0+00                *       
*                                                                       
MAT8*                  6          2.7+07          1.5+06          3.5-01*       
*                 1.1+06          1.1+06          1.1+06          0.0+00*       
*                 0.0+00          0.0+00          0.0+00                *       
*                                                                       
MAT8*                  7          2.7+07          1.5+06          3.5-01*       
*                 1.1+06          1.1+06          1.1+06          0.0+00*       
*                 0.0+00          0.0+00          0.0+00                *       
*                                                                       
MAT8*                  8          2.7+07          1.5+06          3.5-01*       
*                 1.1+06          1.1+06          1.1+06          0.0+00*       
*                 0.0+00          0.0+00          0.0+00                *       
*                                                                       
$--1---><------2-------><------3-------><------4-------><------5-------><--6--->
SPC*                   1               1               1          0.0+00*       
*                                                                       
SPC*                   1               1               2          0.0+00*       
*                                                                       
SPC*                   1               1               3          0.0+00*       
*                                                                       
SPC*                   1               2               3          0.0+00*       
*                                                                       
SPC*                   1               3               3          0.0+00*       
*                                                                       
SPC*                   1               4               3          0.0+00*       
*                                                                       
SPC*                   1               4               1          0.0+00*       
*                                                                       
SPC*                   1               5               3          0.0+00*       
*                                                                       
SPC*                   1               6               3          0.0+00*       
*                                                                       
SPC*                   1               7               3          0.0+00*       
*                                                                       
SPC*                   1               8               3          0.0+00*       
*                                                                       
SPC*                   1               9               3          0.0+00*       
*                                                                       
SPC*                   1              10               3          0.0+00*       
*                                                                       
SPC*                   1              11               3          0.0+00*       
*                                                                       
SPC*                   1              12               3          0.0+00*       
*                                                                       
SPC*                   1              13               3          0.0+00*       
*                                                                       
SPC*                   1              14               3          0.0+00*       
*                                                                       
SPC*                   1              15               3          0.0+00*       
*                                                                       
SPC*                   1              18               3          0.0+00*       
*                                                                       
SPC*                   1              20               3          0.0+00*       
*                                                                       
SPC*                   1              21               3          0.0+00*       
*                                                                       
SPC*                   1              21               1          0.0+00*       
*                                                                       
SPC*                   1              23               3          0.0+00*       
*                                                                       
SPC*                   1              25               3          0.0+00*       
*                                                                       
SPC*                   1              27               3          0.0+00*       
*                                                                       
SPC*                   1              29               3          0.0+00*       
*                                                                       
SPC*                   1              31               3          0.0+00*       
*                                                                       
SPC*                   1              32               3          0.0+00*       
*                                                                       
SPC*                   1              36               3          0.0+00*       
*                                                                       
SPC*                   1              39               3          0.0+00*       
*                                                                       
SPC*                   1              44               3          0.0+00*       
*                                                                       
SPC*                   1              49               3          0.0+00*       
*                                                                       
SPC*                   1              52               3          0.0+00*       
*                                                                       
SPC*                   1              55               3          0.0+00*       
*                                                                       
SPC*                   1              59               3          0.0+00*       
*                                                                       
SPC*                   1              60               3          0.0+00*       
*                                                                       
SPC*                   1              63               3          0.0+00*       
*                                                                       
SPC*                   1              64               3          0.0+00*       
*                                                                       
SPC*                   1              67               3          0.0+00*       
*                                                                       
SPC*                   1              69               3          0.0+00*       
*                                                                       
SPC*                   1              72               3          0.0+00*       
*                                                                       
SPC*                   1              72               1          0.0+00*       
*                                                                       
SPC*                   1              74               3          0.0+00*       
*                                                                       
SPC*                   1              79               3          0.0+00*       
*                                                                       
SPC*                   1              82               3          0.0+00*       
*                                                                       
SPC*                   1              83               3          0.0+00*       
*                                                                       
SPC*                   1              83               1          0.0+00*       
*                                                                       
SPC*                   1              85               3          0.0+00*       
*                                                                       
SPC*                   1              89               3          0.0+00*       
*                                                                       
SPC*                   1              93               3          0.0+00*       
*                                                                       
SPC*                   1              96               3          0.0+00*       
*                                                                       
SPC*                   1              98               3          0.0+00*       
*                                                                       
SPC*                   1             101               3          0.0+00*       
*                                                                       
SPC*                   1             104               3          0.0+00*       
*                                                                       
SPC*                   1             116               3          0.0+00*       
*                                                                       
SPC*                   1             119               3          0.0+00*       
*                                                                       
SPC*                   1             130               3          0.0+00*       
*                                                                       
SPC*                   1             133               3          0.0+00*       
*                                                                       
SPC*                   1             136               3          0.0+00*       
*                                                                       
SPC*                   1             141               3          0.0+00*       
*                                                                       
SPC*                   1             152               3          0.0+00*       
*                                                                       
SPC*                   1             156               3          0.0+00*       
*                                                                       
SPC*                   1             174               3          0.0+00*       
*                                                                       
SPC*                   1             177               3          0.0+00*       
*                                                                       
SPC*                   1             185               3          0.0+00*       
*                                                                       
SPC*                   1             188               3          0.0+00*       
*                                                                       
SPC*                   1             190               3          0.0+00*       
*                                                                       
SPC*                   1             194               3          0.0+00*       
*                                                                       
SPC*                   1             204               3          0.0+00*       
*                                                                       
SPC*                   1             208               3          0.0+00*       
*                                                                       
SPC*                   1             226               3          0.0+00*       
*                                                                       
SPC*                   1             229               3          0.0+00*       
*                                                                       
SPC*                   1             237               3          0.0+00*       
*                                                                       
SPC*                   1             240               3          0.0+00*       
*                                                                       
SPC*                   1             242               3          0.0+00*       
*                                                                       
SPC*                   1             246               3          0.0+00*       
*                                                                       
SPC*                   1             256               3          0.0+00*       
*                                                                       
SPC*                   1             260               3          0.0+00*       
*                                                                       
SPC*                   1             261               3          0.0+00*       
*                                                                       
SPC*                   1             264               3          0.0+00*       
*                                                                       
SPC*                   1             274               3          0.0+00*       
*                                                                       
SPC*                   1             277               3          0.0+00*       
*                                                                       
SPC*                   1             278               3          0.0+00*       
*                                                                       
SPC*                   1             281               3          0.0+00*       
*                                                                       
SPC*                   1             289               3          0.0+00*       
*                                                                       
SPC*                   1             292               3          0.0+00*       
*                                                                       
SPC*                   1             294               3          0.0+00*       
*                                                                       
SPC*                   1             297               3          0.0+00*       
*                                                                       
SPC*                   1             297               1          0.0+00*       
*                                                                       
SPC*                   1             299               3          0.0+00*       
*                                                                       
SPC*                   1             308               3          0.0+00*       
*                                                                       
SPC*                   1             308               1          0.0+00*       
*                                                                       
SPC*                   1             310               3          0.0+00*       
*                                                                       
SPC*                   1             314               3          0.0+00*       
*                                                                       
SPC*                   1             330               3          0.0+00*       
*                                                                       
SPC*                   1             333               3          0.0+00*       
*                                                                       
SPC*                   1             338               3          0.0+00*       
*                                                                       
SPC*                   1             338               1          0.0+00*       
*                                                                       
SPC*                   1             342               3          0.0+00*       
*                                                                       
SPC*                   1             345               3          0.0+00*       
*                                                                       
SPC*                   1             346               3          0.0+00*       
*                                                                       
SPC*                   1             346               1          0.0+00*       
*                                                                       
SPC*                   1             348               3          0.0+00*       
*                                                                       
SPC*                   1             352               3          0.0+00*       
*                                                                       
SPC*                   1             360               3          0.0+00*       
*                                                                       
SPC*                   1             364               3          0.0+00*       
*                                                                       
$--1---><------2-------><------3-------><------4-------><------5-------><--6--->
$$$$$$$$$$$$$$$$$$$$$$$$$$$$$$$$$$$ Default $$$$$$$$$$$$$$$$$$$$$$$$$$$$$$$$$$$$
PCOMP*                 1                                                *       
*                                 0.0+00                             SYM*       
*                      1          7.0-03          0.0+00                *       
*                      2          7.0-03          4.5+01                *       
*                      3          7.0-03         -4.5+01                *       
*                      4          7.0-03          9.0+01                
CQUAD4*                1               1              18             310*       
*                    313             300          0.0+00          0.0+00
CQUAD4*                2               1             310              74*       
*                    311             313          0.0+00          0.0+00
CQUAD4*                3               1             313             311*       
*                     77             312          0.0+00          0.0+00
CQUAD4*                4               1             300             313*       
*                    312              70          0.0+00          0.0+00
CQUAD4*                5               1              74             314*       
*                    317             311          0.0+00          0.0+00
CQUAD4*                6               1             314               5*       
*                    315             317          0.0+00          0.0+00
CQUAD4*                7               1             317             315*       
*                     75             316          0.0+00          0.0+00
CQUAD4*                8               1             311             317*       
*                    316              77          0.0+00          0.0+00
CQUAD4*                9               1              77             316*       
*                    321             320          0.0+00          0.0+00
CQUAD4*               10               1             316              75*       
*                    318             321          0.0+00          0.0+00
CQUAD4*               11               1             321             318*       
*                     19             319          0.0+00          0.0+00
CQUAD4*               12               1             320             321*       
*                    319              76          0.0+00          0.0+00
CQUAD4*               13               1              70             312*       
*                    323             303          0.0+00          0.0+00
CQUAD4*               14               1             312              77*       
*                    320             323          0.0+00          0.0+00
CQUAD4*               15               1             323             320*       
*                     76             322          0.0+00          0.0+00
CQUAD4*               16               1             303             323*       
*                    322              22          0.0+00          0.0+00
CQUAD4*               17               1              22             322*       
*                    327             326          0.0+00          0.0+00
CQUAD4*               18               1             322              76*       
*                    324             327          0.0+00          0.0+00
CQUAD4*               19               1             327             324*       
*                     81             325          0.0+00          0.0+00
CQUAD4*               20               1             326             327*       
$ ... 601 like lines cut
$--1---><------2-------><------3-------><------4-------><------5-------><--6--->
$$$$$$$$$$$$$$$$$$$$$$$$$$$$$$$$$$$$ force $$$$$$$$$$$$$$$$$$$$$$$$$$$$$$$$$$$$$
FORCE*                 1               2               0          1.0+00*       
*               -6.25-01          0.0+00          0.0+00
FORCE*                 1             261               0          1.0+00*       
*               -1.25+00          0.0+00          0.0+00
FORCE*                 1              60               0          1.0+00*       
*               -1.25+00          0.0+00          0.0+00
FORCE*                 1             264               0          1.0+00*       
*               -1.25+00          0.0+00          0.0+00
FORCE*                 1              14               0          1.0+00*       
*               -1.25+00          0.0+00          0.0+00
FORCE*                 1             274               0          1.0+00*       
*               -1.25+00          0.0+00          0.0+00
FORCE*                 1              63               0          1.0+00*       
*               -1.25+00          0.0+00          0.0+00
FORCE*                 1             277               0          1.0+00*       
*               -1.25+00          0.0+00          0.0+00
FORCE*                 1               3               0          1.0+00*       
*               -6.25-01          0.0+00          0.0+00
$--1---><------2-------><------3-------><------4-------><------5-------><--6--->
EIGRL*                 1                                               1*       
*                      0                          1.0+00            MASS
PARAM*            IORQ2T               2                                *       
*                                                                       
ENDDATA
