$ Generated by Mecway 29
$-------------EXECUTIVE CONTROL SECTION-------------
SOL 101
CEND
$---------------CASE CONTROL SECTION----------------
DISPLACEMENT = ALL
$
  ACCELERATION(PRINT,PLOT) = ALL
  DISPLACEMENT(PRINT, PLOT) = ALL
  GPFORCE(PRINT, PLOT) = ALL
  MPCFORCES(PRINT, PLOT) = ALL
  OLOAD(PRINT, PLOT)= ALL
  SPCFORCES(PRINT, PLOT) = ALL
  FORCE(PRINT, PLOT) = ALL
  STRESS(PRINT, PLOT, CORNER)= ALL
  STRAIN(PRINT, PLOT, CORNER)= ALL
$
SPC = 1
LOAD = 1
BEGIN BULK
$-----------------BULK DATA SECTION-----------------
$
  PARAM, POST,-1
$
GRID*                  1               0          0.0+00          0.0+00*       
*                 0.0+00               0
GRID*                  2               0          5.0-01          0.0+00*       
*                 0.0+00               0
GRID*                  3               0          5.0-01          1.0+00*       
*                 0.0+00               0
GRID*                  4               0          0.0+00          1.0+00*       
*                 0.0+00               0
GRID*                  5               0          0.0+00          0.0+00*       
*                 5.0-01               0
GRID*                  6               0          5.0-01          0.0+00*       
*                 5.0-01               0
GRID*                  7               0          5.0-01          1.0+00*       
*                 5.0-01               0
GRID*                  8               0          0.0+00          1.0+00*       
*                 5.0-01               0
GRID*                  9               0          5.0-01          2.0+00*       
*                 5.0-01               0
GRID*                 10               0          0.0+00          2.0+00*       
*                 5.0-01               0
GRID*                 11               0          5.0-01          2.0+00*       
*                 0.0+00               0
GRID*                 12               0          0.0+00          2.0+00*       
*                 0.0+00               0
$--1---><------2-------><------3-------><------4-------><------5-------><--6--->
$$$$$$$$$$$$$$$$$$$$$$$$$$$$$$$$$$$ Material $$$$$$$$$$$$$$$$$$$$$$$$$$$$$$$$$$$
MAT1*                  1          2.1+11         1.05+11          0.0+00*       
*                 8.0+03          0.0+00          0.0+00
$--1---><------2-------><------3-------><------4-------><------5-------><--6--->
SPC*                   1               1               1          0.0+00*       
*                                                                       
SPC*                   1               1               2          0.0+00*       
*                                                                       
SPC*                   1               1               3          0.0+00*       
*                                                                       
SPC*                   1               2               1          0.0+00*       
*                                                                       
SPC*                   1               2               2          0.0+00*       
*                                                                       
SPC*                   1               2               3          0.0+00*       
*                                                                       
SPC*                   1               5               1          0.0+00*       
*                                                                       
SPC*                   1               5               2          0.0+00*       
*                                                                       
SPC*                   1               5               3          0.0+00*       
*                                                                       
SPC*                   1               6               1          0.0+00*       
*                                                                       
SPC*                   1               6               2          0.0+00*       
*                                                                       
SPC*                   1               6               3          0.0+00*       
*                                                                       
$--1---><------2-------><------3-------><------4-------><------5-------><--6--->
$$$$$$$$$$$$$$$$$$$$$$$$$$$$$$$$$$$ Default $$$$$$$$$$$$$$$$$$$$$$$$$$$$$$$$$$$$
PROD*                  1               1          5.0-03                *       
*                                                                       
CROD*                  1               1               1               4*       
*                                                                       
CROD*                  2               1               2               3*       
*                                                                       
CROD*                  3               1               3               4*       
*                                                                       
CROD*                  4               1               5               8*       
*                                                                       
CROD*                  5               1               6               7*       
*                                                                       
CROD*                  6               1               7               8*       
*                                                                       
CROD*                  7               1               8               4*       
*                                                                       
CROD*                  8               1               3               7*       
*                                                                       
CROD*                  9               1               4              12*       
*                                                                       
CROD*                 10               1               3              11*       
*                                                                       
CROD*                 11               1              11              12*       
*                                                                       
CROD*                 12               1               8              10*       
*                                                                       
CROD*                 13               1               7               9*       
*                                                                       
CROD*                 14               1               9              10*       
*                                                                       
CROD*                 15               1              10              12*       
*                                                                       
CROD*                 16               1              11               9*       
*                                                                       
CROD*                 17               1               6               8*       
*                                                                       
CROD*                 18               1               6               3*       
*                                                                       
CROD*                 19               1               1               3*       
*                                                                       
CROD*                 20               1               1               8*       
*                                                                       
CROD*                 21               1               7              10*       
*                                                                       
CROD*                 22               1               7              11*       
*                                                                       
CROD*                 23               1               4              11*       
*                                                                       
CROD*                 24               1               4              10*       
*                                                                       
$--1---><------2-------><------3-------><------4-------><------5-------><--6--->
$$$$$$$$$$$$$$$$$$$$$$$$$$$$$$$$$$$ gravity $$$$$$$$$$$$$$$$$$$$$$$$$$$$$$$$$$$$
GRAV*                  1               0          1.0+00          0.0+00*       
*                -1.0+01          0.0+00
$--1---><------2-------><------3-------><------4-------><------5-------><--6--->
ENDDATA
