$ Generated by Mecway 29
$-------------EXECUTIVE CONTROL SECTION-------------
SOL 105
CEND
$---------------CASE CONTROL SECTION----------------
DISPLACEMENT = ALL
$
  ACCELERATION(PRINT,PLOT) = ALL
  DISPLACEMENT(PRINT, PLOT) = ALL
  GPFORCE(PRINT, PLOT) = ALL
  MPCFORCES(PRINT, PLOT) = ALL
  OLOAD(PRINT, PLOT)= ALL
  SPCFORCES(PRINT, PLOT) = ALL
  FORCE(PRINT, PLOT) = ALL
  STRESS(PRINT, PLOT, CORNER)= ALL
  STRAIN(PRINT, PLOT, CORNER)= ALL
$
SPC = 1
SUBCASE 1
LOAD = 1
SUBCASE 2
METHOD = 1
BEGIN BULK
$-----------------BULK DATA SECTION-----------------
$
  PARAM, POST,-1
$
GRID*                  1               0          0.0+00          0.0+00*       
*                 0.0+00               0
GRID*                  2               0          0.0+00         6.25-01*       
*                 0.0+00               0
GRID*                  3               0          5.0-02         6.25-01*       
*                 0.0+00               0
GRID*                  4               0          0.0+00          1.0+00*       
*                 0.0+00               0
GRID*                  5               0          5.0-02          0.0+00*       
*                 0.0+00               0
GRID*                  6               0          0.0+00         3.75-01*       
*                 0.0+00               0
GRID*                  7               0          5.0-02          2.5-01*       
*                 0.0+00               0
GRID*                  8               0          0.0+00          5.0-01*       
*                 0.0+00               0
GRID*                  9               0          0.0+00         1.25-01*       
*                 0.0+00               0
GRID*                 10               0          5.0-02         1.25-01*       
*                 0.0+00               0
GRID*                 11               0          5.0-02         3.75-01*       
*                 0.0+00               0
GRID*                 12               0          5.0-02          1.0+00*       
*                 0.0+00               0
GRID*                 13               0          0.0+00          7.5-01*       
*                 0.0+00               0
GRID*                 14               0          0.0+00         8.75-01*       
*                 0.0+00               0
GRID*                 15               0          5.0-02          5.0-01*       
*                 0.0+00               0
GRID*                 16               0          5.0-02         8.75-01*       
*                 0.0+00               0
GRID*                 17               0          0.0+00          2.5-01*       
*                 0.0+00               0
GRID*                 18               0          5.0-02          7.5-01*       
*                 0.0+00               0
GRID*                 19               0          2.5-02          0.0+00*       
*                 0.0+00               0
GRID*                 20               0          5.0-02         6.25-02*       
*                 0.0+00               0
$ ... 290 like lines cut
$--1---><------2-------><------3-------><------4-------><------5-------><--6--->
$$$$$$$$$$$$$$$$$$$$$$$$$$$$$$$$$$$ Material $$$$$$$$$$$$$$$$$$$$$$$$$$$$$$$$$$$
MAT8*                  1          5.0+10          5.0+10          0.0+00*       
*                 2.5+10          2.5+10          2.5+10          0.0+00*       
*                 0.0+00          0.0+00          0.0+00                *       
*                                                                       
MAT8*                  2          2.0+11          2.0+11          0.0+00*       
*                 1.0+11          1.0+11          1.0+11          0.0+00*       
*                 0.0+00          0.0+00          0.0+00                *       
*                                                                       
MAT8*                  3          5.0+10          5.0+10          0.0+00*       
*                 2.5+10          2.5+10          2.5+10          0.0+00*       
*                 0.0+00          0.0+00          0.0+00                *       
*                                                                       
$--1---><------2-------><------3-------><------4-------><------5-------><--6--->
SPC*                   1               1               1          0.0+00*       
*                                                                       
SPC*                   1               1               3          0.0+00*       
*                                                                       
SPC*                   1               1               2          0.0+00*       
*                                                                       
SPC*                   1               1               4          0.0+00*       
*                                                                       
SPC*                   1               1               6          0.0+00*       
*                                                                       
SPC*                   1               5               2          0.0+00*       
*                                                                       
SPC*                   1               5               3          0.0+00*       
*                                                                       
SPC*                   1               5               4          0.0+00*       
*                                                                       
SPC*                   1               5               6          0.0+00*       
*                                                                       
SPC*                   1              19               2          0.0+00*       
*                                                                       
SPC*                   1              19               3          0.0+00*       
*                                                                       
SPC*                   1              19               4          0.0+00*       
*                                                                       
SPC*                   1              19               6          0.0+00*       
*                                                                       
SPC*                   1              82               2          0.0+00*       
*                                                                       
SPC*                   1              82               3          0.0+00*       
*                                                                       
SPC*                   1              82               4          0.0+00*       
*                                                                       
SPC*                   1              82               6          0.0+00*       
*                                                                       
SPC*                   1              87               2          0.0+00*       
*                                                                       
SPC*                   1              87               3          0.0+00*       
*                                                                       
SPC*                   1              87               4          0.0+00*       
*                                                                       
SPC*                   1              87               6          0.0+00*       
*                                                                       
$--1---><------2-------><------3-------><------4-------><------5-------><--6--->
$$$$$$$$$$$$$$$$$$$$$$$$$$$$$$$$$$$ Default $$$$$$$$$$$$$$$$$$$$$$$$$$$$$$$$$$$$
PCOMP*                 1                                                *       
*                                 0.0+00                             SYM*       
*                      1          5.0-03          0.0+00                *       
*                      2          5.0-03          0.0+00                
CQUAD4*                1               1              15             140*       
*                    143             131         -9.0+01          0.0+00
CQUAD4*                2               1             140              36*       
*                    141             143         -9.0+01          0.0+00
CQUAD4*                3               1             143             141*       
*                     39             142         -9.0+01          0.0+00
CQUAD4*                4               1             131             143*       
*                    142              33         -9.0+01          0.0+00
CQUAD4*                5               1              36             144*       
*                    147             141         -9.0+01          0.0+00
CQUAD4*                6               1             144               3*       
*                    145             147         -9.0+01          0.0+00
CQUAD4*                7               1             147             145*       
*                     37             146         -9.0+01          0.0+00
CQUAD4*                8               1             141             147*       
*                    146              39         -9.0+01          0.0+00
CQUAD4*                9               1              39             146*       
*                    151             150         -9.0+01          0.0+00
CQUAD4*               10               1             146              37*       
*                    148             151         -9.0+01          0.0+00
CQUAD4*               11               1             151             148*       
*                      2             149         -9.0+01          0.0+00
CQUAD4*               12               1             150             151*       
*                    149              38         -9.0+01          0.0+00
CQUAD4*               13               1              33             142*       
*                    153             134         -9.0+01          0.0+00
CQUAD4*               14               1             142              39*       
*                    150             153         -9.0+01          0.0+00
CQUAD4*               15               1             153             150*       
*                     38             152         -9.0+01          0.0+00
CQUAD4*               16               1             134             153*       
*                    152               8         -9.0+01          0.0+00
CQUAD4*               17               1               3             154*       
*                    157             145         -9.0+01          0.0+00
CQUAD4*               18               1             154              40*       
*                    155             157         -9.0+01          0.0+00
CQUAD4*               19               1             157             155*       
*                     43             156         -9.0+01          0.0+00
CQUAD4*               20               1             145             157*       
$ ... 217 like lines cut
$--1---><------2-------><------3-------><------4-------><------5-------><--6--->
$$$$$$$$$$$$$$$$$$$$$$$$$$$$$$$$$$$$ force $$$$$$$$$$$$$$$$$$$$$$$$$$$$$$$$$$$$$
FORCE*                 1              12               0          1.0+00*       
*                 0.0+00        -1.25-01          0.0+00
FORCE*                 1              73               0          1.0+00*       
*                 0.0+00         -2.5-01          0.0+00
FORCE*                 1              49               0          1.0+00*       
*                 0.0+00         -2.5-01          0.0+00
FORCE*                 1              76               0          1.0+00*       
*                 0.0+00         -2.5-01          0.0+00
FORCE*                 1               4               0          1.0+00*       
*                 0.0+00        -1.25-01          0.0+00
$--1---><------2-------><------3-------><------4-------><------5-------><--6--->
EIGRL*                 1                                               3*       
*                      0                          1.0+03            MASS
PARAM*            IORQ2T               2                                *       
*                                                                       
ENDDATA
