$ Generated by Mecway 29
$-------------EXECUTIVE CONTROL SECTION-------------
SOL 101
CEND
$---------------CASE CONTROL SECTION----------------
DISPLACEMENT = ALL
$
  ACCELERATION(PRINT,PLOT) = ALL
  DISPLACEMENT(PRINT, PLOT) = ALL
  GPFORCE(PRINT, PLOT) = ALL
  MPCFORCES(PRINT, PLOT) = ALL
  OLOAD(PRINT, PLOT)= ALL
  SPCFORCES(PRINT, PLOT) = ALL
  FORCE(PRINT, PLOT) = ALL
  STRESS(PRINT, PLOT, CORNER)= ALL
  STRAIN(PRINT, PLOT, CORNER)= ALL
$
SPC = 1
LOAD = 1
BEGIN BULK
$-----------------BULK DATA SECTION-----------------
$
  PARAM, POST,-1
$
GRID*                  1               0          0.0+00          0.0+00*       
*                 0.0+00               0
GRID*                  2               0          2.0+00          0.0+00*       
*                 0.0+00               0
GRID*                  3               0          1.0+00          0.0+00*       
*                 0.0+00               1
GRID*                  4               0          0.0+00          0.0+00*       
*                 0.0+00               0
GRID*                  5               0 1.4142135624+00          0.0+00*       
*       -1.4142135624+00               0
GRID*                  6               0 7.0710678119-01          0.0+00*       
*       -7.0710678119-01               2
$--1---><------2-------><------3-------><------4-------><------5-------><--6--->
$$$$$$$$$$$$$$$$$$$$$$$$$$$$$$$$$$$ Material $$$$$$$$$$$$$$$$$$$$$$$$$$$$$$$$$$$
MAT1*                  1          1.0+11          5.0+10          0.0+00*       
*                 0.0+00          0.0+00          0.0+00
$--1---><------2-------><------3-------><------4-------><------5-------><--6--->
CORD2R*                1               0          0.0+00          0.0+00*       
*                 0.0+00          0.0+00 7.0710678119-01 7.0710678119-01*       
*                 1.0+00          0.0+00          0.0+00                *       
*                                                                       
CORD2R*                2               0          0.0+00          0.0+00*       
*                 0.0+00-2.8867513459-01 4.0824829046-01 8.6602540378-01*       
*        8.1649658093-01 5.7735026919-01          0.0+00                *       
*                                                                       
SPC*                   1               1               1          0.0+00*       
*                                                                       
SPC*                   1               1               2          0.0+00*       
*                                                                       
SPC*                   1               1               3          0.0+00*       
*                                                                       
SPC*                   1               1               4          0.0+00*       
*                                                                       
SPC*                   1               1               5          0.0+00*       
*                                                                       
SPC*                   1               1               6          0.0+00*       
*                                                                       
SPC*                   1               3               5          0.0+00*       
*                                                                       
SPC*                   1               4               1          0.0+00*       
*                                                                       
SPC*                   1               4               2          0.0+00*       
*                                                                       
SPC*                   1               4               3          0.0+00*       
*                                                                       
SPC*                   1               4               4          0.0+00*       
*                                                                       
SPC*                   1               4               5          0.0+00*       
*                                                                       
SPC*                   1               4               6          0.0+00*       
*                                                                       
SPC*                   1               6               5          0.0+00*       
*                                                                       
$--1---><------2-------><------3-------><------4-------><------5-------><--6--->
$$$$$$$$$$$$$$$$$$$$$$$$$$$$$$$$$$$ Default $$$$$$$$$$$$$$$$$$$$$$$$$$$$$$$$$$$$
PBARL*                 3               1                             BAR*       
*                                                                       *       
*                 1.0-02          1.0-01          0.0+00          0.0+00*       
*                                                                       
CBAR*                  1               3               3               2*       
*                 0.0+00          1.0+00          0.0+00
CBAR*                  2               3               1               3*       
*                 0.0+00 7.0710678119-01-7.0710678119-01
CBAR*                  3               3               6               5*       
*       -2.6090241079-15          1.0+00  1.576516695-14
CBAR*                  4               3               4               6*       
*                -5.0-01 7.0710678119-01         -5.0-01
$--1---><------2-------><------3-------><------4-------><------5-------><--6--->
$$$$$$$$$$$$$$$$$$$$$$$$$$$$$$$$$$$$ force $$$$$$$$$$$$$$$$$$$$$$$$$$$$$$$$$$$$$
FORCE*                 1               2               0          1.0+00*       
*                 0.0+00          1.0+00         -1.0+00
$--1---><------2-------><------3-------><------4-------><------5-------><--6--->
$$$$$$$$$$$$$$$$$$$$$$$$$$$$$$$$$$$$ force $$$$$$$$$$$$$$$$$$$$$$$$$$$$$$$$$$$$$
FORCE*                 1               5               0          1.0+00*       
*       -7.0710678119-01          1.0+00-7.0710678119-01
$--1---><------2-------><------3-------><------4-------><------5-------><--6--->
ENDDATA
