$ Generated by Mecway 29
$-------------EXECUTIVE CONTROL SECTION-------------
SOL 101
CEND
$---------------CASE CONTROL SECTION----------------
DISPLACEMENT = ALL
$
  ACCELERATION(PRINT,PLOT) = ALL
  DISPLACEMENT(PRINT, PLOT) = ALL
  GPFORCE(PRINT, PLOT) = ALL
  MPCFORCES(PRINT, PLOT) = ALL
  OLOAD(PRINT, PLOT)= ALL
  SPCFORCES(PRINT, PLOT) = ALL
  FORCE(PRINT, PLOT) = ALL
  STRESS(PRINT, PLOT, CORNER)= ALL
  STRAIN(PRINT, PLOT, CORNER)= ALL
$
SPC = 1
TEMPERATURE = 1
BEGIN BULK
$-----------------BULK DATA SECTION-----------------
$
  PARAM, POST,-1
$
GRID*                  1               0 7.0710678119-01 7.0710678119-01*       
*                 0.0+00               1
GRID*                  2               0-9.2387953251-01-3.8268343237-01*       
*                 0.0+00               2
GRID*                  3               0 7.0710678119-01 7.0710678119-01*       
*                 5.0-01               1
GRID*                  4               0-7.0710678119-01-7.0710678119-01*       
*                 0.0+00               1
GRID*                  5               0-7.0710678119-01 7.0710678119-01*       
*                 0.0+00               3
GRID*                  6               0-9.2387953251-01-3.8268343237-01*       
*                 5.0-01               4
GRID*                  7               0-3.8268343237-01 9.2387953251-01*       
*                 5.0-01               5
GRID*                  8               0-3.8268343237-01 9.2387953251-01*       
*                 0.0+00               5
GRID*                  9               0-7.0710678119-01 7.0710678119-01*       
*                 5.0-01               6
GRID*                 10               0 3.8268343237-01 9.2387953251-01*       
*                 0.0+00               7
GRID*                 11               0          0.0+00          1.0+00*       
*                 5.0-01               0
GRID*                 12               0         -1.0+00          0.0+00*       
*                 0.0+00               8
GRID*                 13               0-9.2387953251-01 3.8268343237-01*       
*                 5.0-01               9
GRID*                 14               0-9.2387953251-01 3.8268343237-01*       
*                 0.0+00              10
GRID*                 15               0 3.8268343237-01 9.2387953251-01*       
*                 5.0-01               7
GRID*                 16               0-7.0710678119-01-7.0710678119-01*       
*                 5.0-01               1
GRID*                 17               0         -1.0+00          0.0+00*       
*                 5.0-01              11
GRID*                 18               0          0.0+00          1.0+00*       
*                 0.0+00               0
$--1---><------2-------><------3-------><------4-------><------5-------><--6--->
$$$$$$$$$$$$$$$$$$$$$$$$$$$$$$$$$$$ Material $$$$$$$$$$$$$$$$$$$$$$$$$$$$$$$$$$$
MAT1*                  1          2.0+11 7.4074074074+10          3.5-01*       
*                 0.0+00          1.7-04       3.7315+02
$--1---><------2-------><------3-------><------4-------><------5-------><--6--->
CORD2R*                1               0          0.0+00          0.0+00*       
*                 0.0+00          0.0+00          0.0+00          1.0+00*       
*        7.0710678119-01-7.0710678119-01          0.0+00                *       
*                                                                       
CORD2R*                2               0          0.0+00          0.0+00*       
*                 0.0+00          0.0+00          0.0+00          1.0+00*       
*         9.471733059-01 3.2072219848-01          0.0+00                *       
*                                                                       
CORD2R*                3               0          0.0+00          0.0+00*       
*                 0.0+00          0.0+00          0.0+00          1.0+00*       
*        7.0710678119-01 7.0710678119-01          0.0+00                *       
*                                                                       
CORD2R*                4               0          0.0+00          0.0+00*       
*                 0.0+00          0.0+00          0.0+00          1.0+00*       
*        8.9653750898-01 4.4296782613-01          0.0+00                *       
*                                                                       
CORD2R*                5               0          0.0+00          0.0+00*       
*                 0.0+00          0.0+00          0.0+00          1.0+00*       
*        9.2387953251-01 3.8268343237-01          0.0+00                *       
*                                                                       
CORD2R*                6               0          0.0+00          0.0+00*       
*                 0.0+00          0.0+00          0.0+00          1.0+00*       
*        7.5233895931-01-6.5877620654-01          0.0+00                *       
*                                                                       
CORD2R*                7               0          0.0+00          0.0+00*       
*                 0.0+00          0.0+00          0.0+00          1.0+00*       
*        9.2387953251-01-3.8268343237-01          0.0+00                *       
*                                                                       
CORD2R*                8               0          0.0+00          0.0+00*       
*                 0.0+00          0.0+00          0.0+00          1.0+00*       
*        9.9780910281-01-6.6158856944-02          0.0+00                *       
*                                                                       
CORD2R*                9               0          0.0+00          0.0+00*       
*                 0.0+00          0.0+00          0.0+00          1.0+00*       
*         9.471733059-01-3.2072219848-01          0.0+00                *       
*                                                                       
CORD2R*               10               0          0.0+00          0.0+00*       
*                 0.0+00          0.0+00          0.0+00          1.0+00*       
*        8.9653750898-01-4.4296782613-01          0.0+00                *       
*                                                                       
CORD2R*               11               0          0.0+00          0.0+00*       
*                 0.0+00          0.0+00          0.0+00          1.0+00*       
*        9.9780910281-01 6.6158856944-02          0.0+00                *       
*                                                                       
SPC*                   1               1               1          0.0+00*       
*                                                                       
SPC*                   1               1               3          0.0+00*       
*                                                                       
SPC*                   1               1               4          0.0+00*       
*                                                                       
SPC*                   1               1               6          0.0+00*       
*                                                                       
SPC*                   1               1               5          0.0+00*       
*                                                                       
SPC*                   1               2               3          0.0+00*       
*                                                                       
SPC*                   1               2               5          0.0+00*       
*                                                                       
SPC*                   1               2               4          0.0+00*       
*                                                                       
SPC*                   1               3               1          0.0+00*       
*                                                                       
SPC*                   1               3               3          0.0+00*       
*                                                                       
SPC*                   1               3               4          0.0+00*       
*                                                                       
SPC*                   1               3               6          0.0+00*       
*                                                                       
SPC*                   1               3               5          0.0+00*       
*                                                                       
SPC*                   1               4               1          0.0+00*       
*                                                                       
SPC*                   1               4               3          0.0+00*       
*                                                                       
SPC*                   1               4               4          0.0+00*       
*                                                                       
SPC*                   1               4               6          0.0+00*       
*                                                                       
SPC*                   1               4               5          0.0+00*       
*                                                                       
SPC*                   1               5               1          0.0+00*       
*                                                                       
SPC*                   1               5               3          0.0+00*       
*                                                                       
SPC*                   1               5               4          0.0+00*       
*                                                                       
SPC*                   1               5               5          0.0+00*       
*                                                                       
SPC*                   1               6               3          0.0+00*       
*                                                                       
SPC*                   1               6               5          0.0+00*       
*                                                                       
SPC*                   1               6               4          0.0+00*       
*                                                                       
SPC*                   1               7               3          0.0+00*       
*                                                                       
SPC*                   1               7               4          0.0+00*       
*                                                                       
SPC*                   1               7               5          0.0+00*       
*                                                                       
SPC*                   1               8               3          0.0+00*       
*                                                                       
SPC*                   1               8               4          0.0+00*       
*                                                                       
SPC*                   1               8               5          0.0+00*       
*                                                                       
SPC*                   1               9               3          0.0+00*       
*                                                                       
SPC*                   1               9               5          0.0+00*       
*                                                                       
SPC*                   1               9               4          0.0+00*       
*                                                                       
SPC*                   1              10               3          0.0+00*       
*                                                                       
SPC*                   1              10               4          0.0+00*       
*                                                                       
SPC*                   1              10               5          0.0+00*       
*                                                                       
SPC*                   1              11               3          0.0+00*       
*                                                                       
SPC*                   1              11               4          0.0+00*       
*                                                                       
SPC*                   1              11               5          0.0+00*       
*                                                                       
SPC*                   1              12               3          0.0+00*       
*                                                                       
SPC*                   1              12               5          0.0+00*       
*                                                                       
SPC*                   1              12               4          0.0+00*       
*                                                                       
SPC*                   1              13               3          0.0+00*       
*                                                                       
SPC*                   1              13               5          0.0+00*       
*                                                                       
SPC*                   1              13               4          0.0+00*       
*                                                                       
SPC*                   1              14               3          0.0+00*       
*                                                                       
SPC*                   1              14               5          0.0+00*       
*                                                                       
SPC*                   1              14               4          0.0+00*       
*                                                                       
SPC*                   1              15               3          0.0+00*       
*                                                                       
SPC*                   1              15               4          0.0+00*       
*                                                                       
SPC*                   1              15               5          0.0+00*       
*                                                                       
SPC*                   1              16               1          0.0+00*       
*                                                                       
SPC*                   1              16               3          0.0+00*       
*                                                                       
SPC*                   1              16               4          0.0+00*       
*                                                                       
SPC*                   1              16               6          0.0+00*       
*                                                                       
SPC*                   1              16               5          0.0+00*       
*                                                                       
SPC*                   1              17               3          0.0+00*       
*                                                                       
SPC*                   1              17               5          0.0+00*       
*                                                                       
SPC*                   1              17               4          0.0+00*       
*                                                                       
SPC*                   1              18               3          0.0+00*       
*                                                                       
SPC*                   1              18               4          0.0+00*       
*                                                                       
SPC*                   1              18               5          0.0+00*       
*                                                                       
$--1---><------2-------><------3-------><------4-------><------5-------><--6--->
$$$$$$$$$$$$$$$$$$$$$$$$$$$$$$$$$$$ Default $$$$$$$$$$$$$$$$$$$$$$$$$$$$$$$$$$$$
PSHELL*               12               1          3.0-01               1*       
*                                      1                          0.0+00
CQUAD4*                1              12               5               8*       
*                      7               9              13          0.0+00
CORD2R*               13               0          0.0+00          0.0+00*       
*                 0.0+00-5.5557023302-01  8.314696123-01          0.0+00*       
*         8.314696123-01 5.5557023302-01          0.0+00                *       
*                                                                       
CQUAD4*                2              12               8              18*       
*                     11               7              14          0.0+00
CORD2R*               14               0          0.0+00          0.0+00*       
*                 0.0+00-1.9509032202-01  9.807852804-01          0.0+00*       
*         9.807852804-01 1.9509032202-01          0.0+00                *       
*                                                                       
CQUAD4*                4              12              18              10*       
*                     15              11              15          0.0+00
CORD2R*               15               0          0.0+00          0.0+00*       
*                 0.0+00 1.9509032202-01  9.807852804-01          0.0+00*       
*         9.807852804-01-1.9509032202-01          0.0+00                *       
*                                                                       
CQUAD4*                6              12              10               1*       
*                      3              15              16          0.0+00
CORD2R*               16               0          0.0+00          0.0+00*       
*                 0.0+00 5.5557023302-01  8.314696123-01          0.0+00*       
*         8.314696123-01-5.5557023302-01          0.0+00                *       
*                                                                       
PSHELL*               17               1          3.0-01               1*       
*                                      1                          0.0+00
CTRIA3*                3              17              14               9*       
*                     13              18          0.0+00
CORD2R*               18               0          0.0+00          0.0+00*       
*                 0.0+00 -8.314696123-01 5.5557023302-01          0.0+00*       
*         3.417917353-01 5.1152748069-01 7.8836415835-01                *       
*                                                                       
CTRIA3*                5              17              12              13*       
*                     17              19          0.0+00
CORD2R*               19               0          0.0+00          0.0+00*       
*                 0.0+00 -9.807852804-01 1.9509032202-01          0.0+00*       
*        1.2002129657-01 6.0338780415-01 7.8836415835-01                *       
*                                                                       
CTRIA3*                7              17               2              17*       
*                      6              20          0.0+00
CORD2R*               20               0          0.0+00          0.0+00*       
*                 0.0+00 -9.807852804-01-1.9509032202-01          0.0+00*       
*       -1.2002129657-01 6.0338780415-01 7.8836415835-01                *       
*                                                                       
CTRIA3*                8              17               4               6*       
*                     16              21          0.0+00
CORD2R*               21               0          0.0+00          0.0+00*       
*                 0.0+00 -8.314696123-01-5.5557023302-01          0.0+00*       
*        -3.417917353-01 5.1152748069-01 7.8836415835-01                *       
*                                                                       
CTRIA3*                9              17               4               2*       
*                      6              22          0.0+00
CORD2R*               22               0          0.0+00          0.0+00*       
*                 0.0+00 -8.314696123-01-5.5557023302-01          0.0+00*       
*       -5.5557023302-01  8.314696123-01          0.0+00                *       
*                                                                       
CTRIA3*               10              17               2              12*       
*                     17              23          0.0+00
CORD2R*               23               0          0.0+00          0.0+00*       
*                 0.0+00 -9.807852804-01-1.9509032202-01          0.0+00*       
*       -1.9509032202-01  9.807852804-01          0.0+00                *       
*                                                                       
CTRIA3*               11              17              12              14*       
*                     13              24          0.0+00
CORD2R*               24               0          0.0+00          0.0+00*       
*                 0.0+00 -9.807852804-01 1.9509032202-01          0.0+00*       
*        1.9509032202-01  9.807852804-01          0.0+00                *       
*                                                                       
CTRIA3*               12              17              14               5*       
*                      9              25          0.0+00
CORD2R*               25               0          0.0+00          0.0+00*       
*                 0.0+00 -8.314696123-01 5.5557023302-01          0.0+00*       
*        5.5557023302-01  8.314696123-01          0.0+00                *       
*                                                                       
$--1---><------2-------><------3-------><------4-------><------5-------><--6--->
$$$$$$$$$$$$$$$$$$$$$$$$$$$$$$$$$ temperature $$$$$$$$$$$$$$$$$$$$$$$$$$$$$$$$$$
TEMP*                  1               8       2.7315+02                *       
*                                                                       
TEMP*                  1              18       2.7315+02                *       
*                                                                       
TEMP*                  1              11       2.7315+02                *       
*                                                                       
TEMP*                  1               7       2.7315+02                *       
*                                                                       
TEMP*                  1              18       2.7315+02                *       
*                                                                       
TEMP*                  1              10       2.7315+02                *       
*                                                                       
TEMP*                  1              15       2.7315+02                *       
*                                                                       
TEMP*                  1              11       2.7315+02                *       
*                                                                       
TEMP*                  1              14       2.7315+02                *       
*                                                                       
TEMP*                  1               5       2.7315+02                *       
*                                                                       
TEMP*                  1               9       2.7315+02                *       
*                                                                       
TEMP*                  1              10       2.7315+02                *       
*                                                                       
TEMP*                  1               1       2.7315+02                *       
*                                                                       
TEMP*                  1               3       2.7315+02                *       
*                                                                       
TEMP*                  1              15       2.7315+02                *       
*                                                                       
TEMP*                  1              12       2.7315+02                *       
*                                                                       
TEMP*                  1              14       2.7315+02                *       
*                                                                       
TEMP*                  1              13       2.7315+02                *       
*                                                                       
TEMP*                  1               2       2.7315+02                *       
*                                                                       
TEMP*                  1              12       2.7315+02                *       
*                                                                       
TEMP*                  1              17       2.7315+02                *       
*                                                                       
TEMP*                  1               5       2.7315+02                *       
*                                                                       
TEMP*                  1               8       2.7315+02                *       
*                                                                       
TEMP*                  1               7       2.7315+02                *       
*                                                                       
TEMP*                  1               9       2.7315+02                *       
*                                                                       
TEMP*                  1               4       2.7315+02                *       
*                                                                       
TEMP*                  1               2       2.7315+02                *       
*                                                                       
TEMP*                  1               6       2.7315+02                *       
*                                                                       
TEMP*                  1               4       2.7315+02                *       
*                                                                       
TEMP*                  1               6       2.7315+02                *       
*                                                                       
TEMP*                  1              16       2.7315+02                *       
*                                                                       
TEMP*                  1               2       2.7315+02                *       
*                                                                       
TEMP*                  1              17       2.7315+02                *       
*                                                                       
TEMP*                  1               6       2.7315+02                *       
*                                                                       
TEMP*                  1              12       2.7315+02                *       
*                                                                       
TEMP*                  1              13       2.7315+02                *       
*                                                                       
TEMP*                  1              17       2.7315+02                *       
*                                                                       
TEMP*                  1              14       2.7315+02                *       
*                                                                       
TEMP*                  1               9       2.7315+02                *       
*                                                                       
TEMP*                  1              13       2.7315+02                *       
*                                                                       
$--1---><------2-------><------3-------><------4-------><------5-------><--6--->
TEMPD*                 1       3.7315+02                                *       
*                                                                       
$--1---><------2-------><------3-------><------4-------><------5-------><--6--->
ENDDATA
