$ Generated by Mecway 29
$-------------EXECUTIVE CONTROL SECTION-------------
SOL 105
CEND
$---------------CASE CONTROL SECTION----------------
DISPLACEMENT = ALL
$
  ACCELERATION(PRINT,PLOT) = ALL
  DISPLACEMENT(PRINT, PLOT) = ALL
  GPFORCE(PRINT, PLOT) = ALL
  MPCFORCES(PRINT, PLOT) = ALL
  OLOAD(PRINT, PLOT)= ALL
  SPCFORCES(PRINT, PLOT) = ALL
  FORCE(PRINT, PLOT) = ALL
  STRESS(PRINT, PLOT, CORNER)= ALL
  STRAIN(PRINT, PLOT, CORNER)= ALL
$
SPC = 1
SUBCASE 1
LOAD = 1
SUBCASE 2
METHOD = 1
BEGIN BULK
$-----------------BULK DATA SECTION-----------------
$
  PARAM, POST,-1
$
GRID*                  1               0          2.5+01          0.0+00*       
*                -1.2+01               0
GRID*                  2               0 1.4695276246-14          0.0+00*       
*                -1.2+01               0
GRID*                  3               0          2.5+01          0.0+00*       
*                -1.8+01               0
GRID*                  4               0 2.2042914369-14          0.0+00*       
*                -1.8+01               0
GRID*                  5               0          2.5+01          0.0+00*       
*                -2.4+01               0
GRID*                  6               0  2.571673343-14          0.0+00*       
*                -2.1+01               0
GRID*                  7               0          2.5+01          0.0+00*       
*                -1.5+01               0
GRID*                  8               0 1.8369095307-14          0.0+00*       
*                -1.5+01               0
GRID*                  9               0          2.5+01          0.0+00*       
*                -9.0+00               0
GRID*                 10               0 1.1021457184-14          0.0+00*       
*                -9.0+00               0
GRID*                 11               0 2.9390552492-14          0.0+00*       
*                -2.4+01               0
GRID*                 12               0          2.5+01          0.0+00*       
*                -2.1+01               0
$--1---><------2-------><------3-------><------4-------><------5-------><--6--->
$$$$$$$$$$$$$$$$$$$$$$$$$$$$$$$$$ Material(7) $$$$$$$$$$$$$$$$$$$$$$$$$$$$$$$$$$
MAT1*                  4          2.0+11          1.0+11          0.0+00*       
*                 0.0+00          0.0+00          0.0+00
$--1---><------2-------><------3-------><------4-------><------5-------><--6--->
$$$$$$$$$$$$$$$$$$$$$$$$$$$$$$$$$ Material(8) $$$$$$$$$$$$$$$$$$$$$$$$$$$$$$$$$$
MAT1*                  5          2.0+11          1.0+11          0.0+00*       
*                 0.0+00          0.0+00          0.0+00
$--1---><------2-------><------3-------><------4-------><------5-------><--6--->
$$$$$$$$$$$$$$$$$$$$$$$$$$$$$$$$$ Material(9) $$$$$$$$$$$$$$$$$$$$$$$$$$$$$$$$$$
MAT1*                  6          2.0+11          1.0+11          0.0+00*       
*                 0.0+00          0.0+00          0.0+00
$--1---><------2-------><------3-------><------4-------><------5-------><--6--->
$$$$$$$$$$$$$$$$$$$$$$$$$$$$$$$$$ Material(4) $$$$$$$$$$$$$$$$$$$$$$$$$$$$$$$$$$
MAT1*                  1          2.0+11          1.0+11          0.0+00*       
*                 0.0+00          0.0+00          0.0+00
$--1---><------2-------><------3-------><------4-------><------5-------><--6--->
$$$$$$$$$$$$$$$$$$$$$$$$$$$$$$$$$ Material(5) $$$$$$$$$$$$$$$$$$$$$$$$$$$$$$$$$$
MAT1*                  2          2.0+11          1.0+11          0.0+00*       
*                 0.0+00          0.0+00          0.0+00
$--1---><------2-------><------3-------><------4-------><------5-------><--6--->
$$$$$$$$$$$$$$$$$$$$$$$$$$$$$$$$$ Material(6) $$$$$$$$$$$$$$$$$$$$$$$$$$$$$$$$$$
MAT1*                  3          2.0+11          1.0+11          0.0+00*       
*                 0.0+00          0.0+00          0.0+00
$--1---><------2-------><------3-------><------4-------><------5-------><--6--->
SPC*                   1               1               1          0.0+00*       
*                                                                       
SPC*                   1               1               2          0.0+00*       
*                                                                       
SPC*                   1               1               3          0.0+00*       
*                                                                       
SPC*                   1               1               4          0.0+00*       
*                                                                       
SPC*                   1               1               5          0.0+00*       
*                                                                       
SPC*                   1               1               6          0.0+00*       
*                                                                       
SPC*                   1               3               1          0.0+00*       
*                                                                       
SPC*                   1               3               2          0.0+00*       
*                                                                       
SPC*                   1               3               3          0.0+00*       
*                                                                       
SPC*                   1               3               4          0.0+00*       
*                                                                       
SPC*                   1               3               5          0.0+00*       
*                                                                       
SPC*                   1               3               6          0.0+00*       
*                                                                       
SPC*                   1               5               1          0.0+00*       
*                                                                       
SPC*                   1               5               2          0.0+00*       
*                                                                       
SPC*                   1               5               3          0.0+00*       
*                                                                       
SPC*                   1               5               4          0.0+00*       
*                                                                       
SPC*                   1               5               5          0.0+00*       
*                                                                       
SPC*                   1               5               6          0.0+00*       
*                                                                       
SPC*                   1               7               1          0.0+00*       
*                                                                       
SPC*                   1               7               2          0.0+00*       
*                                                                       
SPC*                   1               7               3          0.0+00*       
*                                                                       
SPC*                   1               7               4          0.0+00*       
*                                                                       
SPC*                   1               7               5          0.0+00*       
*                                                                       
SPC*                   1               7               6          0.0+00*       
*                                                                       
SPC*                   1               9               1          0.0+00*       
*                                                                       
SPC*                   1               9               2          0.0+00*       
*                                                                       
SPC*                   1               9               3          0.0+00*       
*                                                                       
SPC*                   1               9               4          0.0+00*       
*                                                                       
SPC*                   1               9               5          0.0+00*       
*                                                                       
SPC*                   1               9               6          0.0+00*       
*                                                                       
SPC*                   1              12               1          0.0+00*       
*                                                                       
SPC*                   1              12               2          0.0+00*       
*                                                                       
SPC*                   1              12               3          0.0+00*       
*                                                                       
SPC*                   1              12               4          0.0+00*       
*                                                                       
SPC*                   1              12               5          0.0+00*       
*                                                                       
SPC*                   1              12               6          0.0+00*       
*                                                                       
$--1---><------2-------><------3-------><------4-------><------5-------><--6--->
$$$$$$$$$$$$$$$$$$$$$$$$$$$$$$$$$ Component(6) $$$$$$$$$$$$$$$$$$$$$$$$$$$$$$$$$
PBAR*                  1               4 3.1415926536-02  7.853981634-05*       
*         7.853981634-05 1.5707963268-04          0.0+00
CBAR*                  3               1               4               3*       
*                 0.0+00          1.0+00          0.0+00
$--1---><------2-------><------3-------><------4-------><------5-------><--6--->
$$$$$$$$$$$$$$$$$$$$$$$$$$$$$$$$$ Component(7) $$$$$$$$$$$$$$$$$$$$$$$$$$$$$$$$$
PBAR*                  2               5 5.9690260418-03 2.7009842839-05*       
*        2.7009842839-05 5.4019685678-05          0.0+00
CBAR*                  1               2               6              12*       
*                 0.0+00          1.0+00          0.0+00
$--1---><------2-------><------3-------><------4-------><------5-------><--6--->
$$$$$$$$$$$$$$$$$$$$$$$$$$$$$$$$$ Component(8) $$$$$$$$$$$$$$$$$$$$$$$$$$$$$$$$$
PBAR*                  3               6          3.0-02          3.0-04*       
*                 6.0-06          1.0-04          0.0+00
CBAR*                  2               3              11               5*       
*                 0.0+00          1.0+00          0.0+00
$--1---><------2-------><------3-------><------4-------><------5-------><--6--->
$$$$$$$$$$$$$$$$$$$$$$$$$$$$$$$$$ Component(3) $$$$$$$$$$$$$$$$$$$$$$$$$$$$$$$$$
PBAR*                  4               1          5.3-03 5.3364166667-05*       
*        5.6441666667-06 1.7979089233-07          0.0+00
CBAR*                  5               4              10               9*       
*                 0.0+00          1.0+00          0.0+00
$--1---><------2-------><------3-------><------4-------><------5-------><--6--->
$$$$$$$$$$$$$$$$$$$$$$$$$$$$$$$$$ Component(4) $$$$$$$$$$$$$$$$$$$$$$$$$$$$$$$$$
PBAR*                  5               2          3.0-02        5.625-05*       
*                 1.0-04 1.2149066162-04          0.0+00
CBAR*                  6               5               2               1*       
*                 0.0+00          1.0+00          0.0+00
$--1---><------2-------><------3-------><------4-------><------5-------><--6--->
$$$$$$$$$$$$$$$$$$$$$$$$$$$$$$$$$ Component(5) $$$$$$$$$$$$$$$$$$$$$$$$$$$$$$$$$
PBAR*                  6               3          9.6-03       1.2072-04*       
*               6.392-05 1.2650041667-04          0.0+00
CBAR*                  4               6               8               7*       
*                 0.0+00          1.0+00          0.0+00
$--1---><------2-------><------3-------><------4-------><------5-------><--6--->
$$$$$$$$$$$$$$$$$$$$$$$$$$$$$$$$$$$$ force $$$$$$$$$$$$$$$$$$$$$$$$$$$$$$$$$$$$$
FORCE*                 1              10               0          1.0+00*       
*                 5.0+00          0.0+00          0.0+00
FORCE*                 1               2               0          1.0+00*       
*                 5.0+00          0.0+00          0.0+00
FORCE*                 1               8               0          1.0+00*       
*                 5.0+00          0.0+00          0.0+00
FORCE*                 1               4               0          1.0+00*       
*                 5.0+00          0.0+00          0.0+00
FORCE*                 1               6               0          1.0+00*       
*                 5.0+00          0.0+00          0.0+00
FORCE*                 1              11               0          1.0+00*       
*                 5.0+00          0.0+00          0.0+00
$--1---><------2-------><------3-------><------4-------><------5-------><--6--->
EIGRL*                 1                                              12*       
*                      0                          1.0+02            MASS
ENDDATA
