$ Generated by Mecway 29
$-------------EXECUTIVE CONTROL SECTION-------------
SOL 101
CEND
$---------------CASE CONTROL SECTION----------------
DISPLACEMENT = ALL
$
  ACCELERATION(PRINT,PLOT) = ALL
  DISPLACEMENT(PRINT, PLOT) = ALL
  GPFORCE(PRINT, PLOT) = ALL
  MPCFORCES(PRINT, PLOT) = ALL
  OLOAD(PRINT, PLOT)= ALL
  SPCFORCES(PRINT, PLOT) = ALL
  FORCE(PRINT, PLOT) = ALL
  STRESS(PRINT, PLOT, CORNER)= ALL
  STRAIN(PRINT, PLOT, CORNER)= ALL
$
SPC = 1
LOAD = 1
BEGIN BULK
$-----------------BULK DATA SECTION-----------------
$
  PARAM, POST,-1
$
GRID*                  1               0          0.0+00          0.0+00*       
*                 0.0+00               0
GRID*                  2               0          1.0-01          0.0+00*       
*                 0.0+00               0
GRID*                  3               0          1.0-01          1.0-01*       
*                 0.0+00               0
GRID*                  4               0          0.0+00          1.0-01*       
*                 0.0+00               0
GRID*                  5               0          2.0-01          0.0+00*       
*                 0.0+00               0
GRID*                  6               0          3.0-01          0.0+00*       
*                 0.0+00               0
GRID*                  7               0          3.0-01          1.0-01*       
*                 0.0+00               0
GRID*                  8               0          2.0-01          1.0-01*       
*                 0.0+00               0
GRID*                  9               0          4.0-01          0.0+00*       
*                 0.0+00               0
GRID*                 10               0          5.0-01          0.0+00*       
*                 0.0+00               0
GRID*                 11               0          5.0-01          1.0-01*       
*                 0.0+00               0
GRID*                 12               0          4.0-01          1.0-01*       
*                 0.0+00               0
GRID*                 13               0          6.0-01          0.0+00*       
*                 0.0+00               0
GRID*                 14               0          7.0-01          0.0+00*       
*                 0.0+00               0
GRID*                 15               0          7.0-01          1.0-01*       
*                 0.0+00               0
GRID*                 16               0          6.0-01          1.0-01*       
*                 0.0+00               0
PARAM*          QUAD4TYP           MIN4T                                *       
*                                                                       
$--1---><------2-------><------3-------><------4-------><------5-------><--6--->
$$$$$$$$$$$$$$$$$$$$$$$$$$$$$$$$$$$ Material $$$$$$$$$$$$$$$$$$$$$$$$$$$$$$$$$$$
MAT8*                  1          1.0+11          1.0+11          0.0+00*       
*                 5.0+10          5.0+10          5.0+10          0.0+00*       
*                 0.0+00          0.0+00          0.0+00                *       
*                                                                       
MAT8*                  2          1.0+10          1.0+10          0.0+00*       
*                 5.0+09          5.0+09          5.0+09          0.0+00*       
*                 0.0+00          0.0+00          0.0+00                *       
*                                                                       
$--1---><------2-------><------3-------><------4-------><------5-------><--6--->
SPC*                   1               1               1          0.0+00*       
*                                                                       
SPC*                   1               1               2          0.0+00*       
*                                                                       
SPC*                   1               1               3          0.0+00*       
*                                                                       
SPC*                   1               1               4          0.0+00*       
*                                                                       
SPC*                   1               1               5          0.0+00*       
*                                                                       
SPC*                   1               1               6          0.0+00*       
*                                                                       
SPC*                   1               2               1          0.0+00*       
*                                                                       
SPC*                   1               2               2          0.0+00*       
*                                                                       
SPC*                   1               2               3          0.0+00*       
*                                                                       
SPC*                   1               2               4          0.0+00*       
*                                                                       
SPC*                   1               2               5          0.0+00*       
*                                                                       
SPC*                   1               2               6          0.0+00*       
*                                                                       
SPC*                   1               5               1          0.0+00*       
*                                                                       
SPC*                   1               5               2          0.0+00*       
*                                                                       
SPC*                   1               5               3          0.0+00*       
*                                                                       
SPC*                   1               5               4          0.0+00*       
*                                                                       
SPC*                   1               5               5          0.0+00*       
*                                                                       
SPC*                   1               5               6          0.0+00*       
*                                                                       
SPC*                   1               6               1          0.0+00*       
*                                                                       
SPC*                   1               6               2          0.0+00*       
*                                                                       
SPC*                   1               6               3          0.0+00*       
*                                                                       
SPC*                   1               6               4          0.0+00*       
*                                                                       
SPC*                   1               6               5          0.0+00*       
*                                                                       
SPC*                   1               6               6          0.0+00*       
*                                                                       
SPC*                   1               9               1          0.0+00*       
*                                                                       
SPC*                   1               9               2          0.0+00*       
*                                                                       
SPC*                   1               9               3          0.0+00*       
*                                                                       
SPC*                   1               9               4          0.0+00*       
*                                                                       
SPC*                   1               9               5          0.0+00*       
*                                                                       
SPC*                   1               9               6          0.0+00*       
*                                                                       
SPC*                   1              10               1          0.0+00*       
*                                                                       
SPC*                   1              10               2          0.0+00*       
*                                                                       
SPC*                   1              10               3          0.0+00*       
*                                                                       
SPC*                   1              10               4          0.0+00*       
*                                                                       
SPC*                   1              10               5          0.0+00*       
*                                                                       
SPC*                   1              10               6          0.0+00*       
*                                                                       
SPC*                   1              13               1          0.0+00*       
*                                                                       
SPC*                   1              13               2          0.0+00*       
*                                                                       
SPC*                   1              13               3          0.0+00*       
*                                                                       
SPC*                   1              13               4          0.0+00*       
*                                                                       
SPC*                   1              13               5          0.0+00*       
*                                                                       
SPC*                   1              13               6          0.0+00*       
*                                                                       
SPC*                   1              14               1          0.0+00*       
*                                                                       
SPC*                   1              14               2          0.0+00*       
*                                                                       
SPC*                   1              14               3          0.0+00*       
*                                                                       
SPC*                   1              14               4          0.0+00*       
*                                                                       
SPC*                   1              14               5          0.0+00*       
*                                                                       
SPC*                   1              14               6          0.0+00*       
*                                                                       
$--1---><------2-------><------3-------><------4-------><------5-------><--6--->
$$$$$$$$$$$$$$$$$$$$$$$$$$$$$$$$$$$ Default $$$$$$$$$$$$$$$$$$$$$$$$$$$$$$$$$$$$
PCOMP*                 1                                                *       
*                                 0.0+00                                *       
*                      1          1.0-02          0.0+00                *       
*                      2          1.0-02          0.0+00                
CQUAD4*                1               1               4               1*       
*                      2               3          0.0+00          0.0+00
CQUAD4*                2               1               5               6*       
*                      7               8          0.0+00          0.0+00
CQUAD4*                3               1              10              11*       
*                     12               9          0.0+00          0.0+00
CQUAD4*                4               1              15              16*       
*                     13              14          0.0+00          0.0+00
$--1---><------2-------><------3-------><------4-------><------5-------><--6--->
$$$$$$$$$$$$$$$$$$$$$$$$$$$$$$$$$$$$ force $$$$$$$$$$$$$$$$$$$$$$$$$$$$$$$$$$$$$
FORCE*                 1               4               0          1.0+00*       
*                 0.0+00          5.0+03          0.0+00
FORCE*                 1               3               0          1.0+00*       
*                 0.0+00          5.0+03          0.0+00
FORCE*                 1               7               0          1.0+00*       
*                 0.0+00          5.0+03          0.0+00
FORCE*                 1               8               0          1.0+00*       
*                 0.0+00          5.0+03          0.0+00
FORCE*                 1              11               0          1.0+00*       
*                 0.0+00          5.0+03          0.0+00
FORCE*                 1              12               0          1.0+00*       
*                 0.0+00          5.0+03          0.0+00
FORCE*                 1              15               0          1.0+00*       
*                 0.0+00          5.0+03          0.0+00
FORCE*                 1              16               0          1.0+00*       
*                 0.0+00          5.0+03          0.0+00
$--1---><------2-------><------3-------><------4-------><------5-------><--6--->
PARAM*            IORQ2T               2                                *       
*                                                                       
ENDDATA
