$ Generated by Mecway 29
$-------------EXECUTIVE CONTROL SECTION-------------
SOL 101
CEND
$---------------CASE CONTROL SECTION----------------
DISPLACEMENT = ALL
STRESS(CORNER) = ALL
FORCE = ALL
$
  ACCELERATION(PRINT,PLOT) = ALL
  DISPLACEMENT(PRINT, PLOT) = ALL
  GPFORCE(PRINT, PLOT) = ALL
  MPCFORCES(PRINT, PLOT) = ALL
  OLOAD(PRINT, PLOT)= ALL
  SPCFORCES(PRINT, PLOT) = ALL
  FORCE(PRINT, PLOT) = ALL
  STRESS(PRINT, PLOT, CORNER)= ALL
  STRAIN(PRINT, PLOT, CORNER)= ALL
$
SPC = 1
TEMPERATURE = 1
BEGIN BULK
$-----------------BULK DATA SECTION-----------------
$
  PARAM, POST,-1
$
GRID*                  1               0 2.4492127076-16          0.0+00*       
*                -2.0+00               0
GRID*                  2               0 3.6738190615-16          0.0+00*       
*                -3.0+00               0
GRID*                  3               0 3.6738190615-16          1.0+00*       
*                -3.0+00               0
GRID*                  4               0 2.4492127076-16          1.0+00*       
*                -2.0+00               0
GRID*                  5               0 3.0615158846-16          0.0+00*       
*                -2.5+00               0
GRID*                  6               0 3.6738190615-16 4.3631437421-01*       
*                -3.0+00               0
GRID*                  7               0 2.9835260991-16          1.0+00*       
*        -2.436314404+00               0
GRID*                  8               0 2.4492127076-16 4.4541230798-01*       
*                -2.0+00               0
GRID*                  9               0 2.9111070438-16 5.7278347015-01*       
*       -2.3771778047+00               0
GRID*                 10               0 2.6608172459-16  4.838258028-01*       
*       -2.1727939248+00               0
GRID*                 11               0 2.9473165714-16 7.8639173508-01*       
*       -2.4067461044+00               0
GRID*                 12               0 2.7163694034-16          1.0+00*       
*        -2.218157202+00               0
GRID*                 13               0 2.4492127076-16 7.2270615399-01*       
*                -2.0+00               0
GRID*                 14               0 2.6982646395-16 7.5454894453-01*       
*       -2.2033730522+00               0
GRID*                 15               0 2.7553642961-16          0.0+00*       
*               -2.25+00               0
GRID*                 16               0 2.9863114642-16 2.8639173508-01*       
*       -2.4385889024+00               0
GRID*                 17               0 2.4492127076-16 2.2270615399-01*       
*                -2.0+00               0
GRID*                 18               0  2.667471126-16 2.3559488356-01*       
*       -2.1782274097+00               0
GRID*                 19               0  3.367667473-16  2.181571871-01*       
*               -2.75+00               0
GRID*                 20               0 3.2653833197-16 5.8036506176-01*       
*       -2.6664758921+00               0
$ ... 60 like lines cut
$--1---><------2-------><------3-------><------4-------><------5-------><--6--->
$$$$$$$$$$$$$$$$$$$$$$$$$$$$$$$$$$$$ ortho $$$$$$$$$$$$$$$$$$$$$$$$$$$$$$$$$$$$$
MAT8*                  1          2.0+11          2.0+11          0.0+00*       
*                 1.0+11          1.0+11          1.0+11          0.0+00*       
*                 1.1-03          2.5-03       3.2315+02                *       
*                                                                       
$--1---><------2-------><------3-------><------4-------><------5-------><--6--->
SPC*                   1               1               2          0.0+00*       
*                                                                       
SPC*                   1               1               3          0.0+00*       
*                                                                       
SPC*                   1               1               5          0.0+00*       
*                                                                       
SPC*                   1               1               6          0.0+00*       
*                                                                       
SPC*                   1               1               4          0.0+00*       
*                                                                       
SPC*                   1               2               2          0.0+00*       
*                                                                       
SPC*                   1               2               6          0.0+00*       
*                                                                       
SPC*                   1               2               4          0.0+00*       
*                                                                       
SPC*                   1               3               2          0.0+00*       
*                                                                       
SPC*                   1               3               6          0.0+00*       
*                                                                       
SPC*                   1               3               4          0.0+00*       
*                                                                       
SPC*                   1               4               2          0.0+00*       
*                                                                       
SPC*                   1               4               3          0.0+00*       
*                                                                       
SPC*                   1               4               5          0.0+00*       
*                                                                       
SPC*                   1               4               6          0.0+00*       
*                                                                       
SPC*                   1               4               4          0.0+00*       
*                                                                       
SPC*                   1               5               2          0.0+00*       
*                                                                       
SPC*                   1               5               6          0.0+00*       
*                                                                       
SPC*                   1               5               4          0.0+00*       
*                                                                       
SPC*                   1               7               2          0.0+00*       
*                                                                       
SPC*                   1               7               6          0.0+00*       
*                                                                       
SPC*                   1               7               4          0.0+00*       
*                                                                       
SPC*                   1               8               3          0.0+00*       
*                                                                       
SPC*                   1               8               5          0.0+00*       
*                                                                       
SPC*                   1               8               4          0.0+00*       
*                                                                       
SPC*                   1              12               2          0.0+00*       
*                                                                       
SPC*                   1              12               6          0.0+00*       
*                                                                       
SPC*                   1              12               4          0.0+00*       
*                                                                       
SPC*                   1              13               3          0.0+00*       
*                                                                       
SPC*                   1              13               5          0.0+00*       
*                                                                       
SPC*                   1              13               4          0.0+00*       
*                                                                       
SPC*                   1              15               2          0.0+00*       
*                                                                       
SPC*                   1              15               6          0.0+00*       
*                                                                       
SPC*                   1              15               4          0.0+00*       
*                                                                       
SPC*                   1              17               3          0.0+00*       
*                                                                       
SPC*                   1              17               5          0.0+00*       
*                                                                       
SPC*                   1              17               4          0.0+00*       
*                                                                       
SPC*                   1              22               2          0.0+00*       
*                                                                       
SPC*                   1              22               6          0.0+00*       
*                                                                       
SPC*                   1              22               4          0.0+00*       
*                                                                       
SPC*                   1              24               2          0.0+00*       
*                                                                       
SPC*                   1              24               6          0.0+00*       
*                                                                       
SPC*                   1              24               4          0.0+00*       
*                                                                       
SPC*                   1              26               2          0.0+00*       
*                                                                       
SPC*                   1              26               3          0.0+00*       
*                                                                       
SPC*                   1              26               5          0.0+00*       
*                                                                       
SPC*                   1              26               6          0.0+00*       
*                                                                       
SPC*                   1              26               4          0.0+00*       
*                                                                       
SPC*                   1              27               2          0.0+00*       
*                                                                       
SPC*                   1              27               6          0.0+00*       
*                                                                       
SPC*                   1              27               4          0.0+00*       
*                                                                       
SPC*                   1              28               2          0.0+00*       
*                                                                       
SPC*                   1              28               6          0.0+00*       
*                                                                       
SPC*                   1              28               4          0.0+00*       
*                                                                       
SPC*                   1              29               2          0.0+00*       
*                                                                       
SPC*                   1              29               3          0.0+00*       
*                                                                       
SPC*                   1              29               5          0.0+00*       
*                                                                       
SPC*                   1              29               6          0.0+00*       
*                                                                       
SPC*                   1              29               4          0.0+00*       
*                                                                       
SPC*                   1              30               2          0.0+00*       
*                                                                       
SPC*                   1              30               6          0.0+00*       
*                                                                       
SPC*                   1              30               4          0.0+00*       
*                                                                       
SPC*                   1              32               2          0.0+00*       
*                                                                       
SPC*                   1              32               6          0.0+00*       
*                                                                       
SPC*                   1              32               4          0.0+00*       
*                                                                       
SPC*                   1              33               3          0.0+00*       
*                                                                       
SPC*                   1              33               5          0.0+00*       
*                                                                       
SPC*                   1              33               4          0.0+00*       
*                                                                       
SPC*                   1              37               2          0.0+00*       
*                                                                       
SPC*                   1              37               6          0.0+00*       
*                                                                       
SPC*                   1              37               4          0.0+00*       
*                                                                       
SPC*                   1              38               3          0.0+00*       
*                                                                       
SPC*                   1              38               5          0.0+00*       
*                                                                       
SPC*                   1              38               4          0.0+00*       
*                                                                       
SPC*                   1              40               2          0.0+00*       
*                                                                       
SPC*                   1              40               6          0.0+00*       
*                                                                       
SPC*                   1              40               4          0.0+00*       
*                                                                       
SPC*                   1              42               3          0.0+00*       
*                                                                       
SPC*                   1              42               5          0.0+00*       
*                                                                       
SPC*                   1              42               4          0.0+00*       
*                                                                       
SPC*                   1              47               2          0.0+00*       
*                                                                       
SPC*                   1              47               6          0.0+00*       
*                                                                       
SPC*                   1              47               4          0.0+00*       
*                                                                       
SPC*                   1              49               2          0.0+00*       
*                                                                       
SPC*                   1              49               6          0.0+00*       
*                                                                       
SPC*                   1              49               4          0.0+00*       
*                                                                       
$--1---><------2-------><------3-------><------4-------><------5-------><--6--->
$$$$$$$$$$$$$$$$$$$$$$$$$$$$$$$$$$$ Default $$$$$$$$$$$$$$$$$$$$$$$$$$$$$$$$$$$$
PSHELL*                1               1          3.0-01               1*       
*                                      1                          0.0+00
CQUAD4*                1               1              13              14*       
*                     12               4  1.711012593+02          0.0+00
CQUAD4*                2               1               1              15*       
*                     18              17          1.8+02          0.0+00
CQUAD4*                3               1              15               5*       
*                     16              18          1.8+02          0.0+00
CQUAD4*                4               1              10              18*       
*                     16               9 -9.125393746+01          0.0+00
CQUAD4*                5               1              17              18*       
*                     10               8 1.7586378703+02          0.0+00
CQUAD4*               10               1               9              20*       
*                     23              11 1.7849880171+02          0.0+00
CQUAD4*               11               1              20               6*       
*                     21              23-1.5664024885+02          0.0+00
CQUAD4*               12               1              23              21*       
*                      3              22-1.7343881706+02          0.0+00
CQUAD4*               17               1              16               5*       
*                     24              19-1.0210268341+02          0.0+00
CQUAD4*               18               1              24               2*       
*                     25              19          1.8+02          0.0+00
CQUAD4*               19               1              25               6*       
*                     20              19          9.0+01          0.0+00
CQUAD4*               20               1              20               9*       
*                     16              19-1.5011982935+00          0.0+00
CQUAD4*               41               1              11              23*       
*                     22               7-1.7343881706+02          0.0+00
CQUAD4*               46               1               8              10*       
*                     14              13 1.6746650169+02          0.0+00
CQUAD4*               47               1              14              10*       
*                      9              11-8.3555555468+01          0.0+00
CQUAD4*               48               1              14              11*       
*                      7              12  1.711012593+02          0.0+00
PSHELL*                2               1          3.0-01               1*       
*                                      1                          0.0+00
CTRIA3*                6               2              42              43*       
*                     35 1.7586378703+02          0.0+00
CTRIA3*                7               2              34              45*       
*                     48 1.7849880171+02          0.0+00
CTRIA3*                8               2              45              31*       
*                     46-1.5664024885+02          0.0+00
CTRIA3*                9               2              48              46*       
*                     28-1.7343881706+02          0.0+00
CTRIA3*               13               2              36              48*       
*                     47-1.7343881706+02          0.0+00
CTRIA3*               14               2              33              35*       
*                     39 1.6746650169+02          0.0+00
CTRIA3*               15               2              39              35*       
*                     34-8.3555555468+01          0.0+00
CTRIA3*               16               2              39              36*       
*                     32  1.711012593+02          0.0+00
CTRIA3*               21               2              36              47*       
*                     32 1.4555234829+02          0.0+00
CTRIA3*               22               2              44              30*       
*                     49 -4.110888589+01          0.0+00
CTRIA3*               23               2              49              27*       
*                     50          1.8+02          0.0+00
CTRIA3*               24               2              44              50*       
*                     31          1.8+02          0.0+00
CTRIA3*               25               2              44              49*       
*                     50         -9.0+01          0.0+00
CTRIA3*               26               2              33              39*       
*                     38  1.233398906+02          0.0+00
CTRIA3*               27               2              39              34*       
*                     36-1.3371744161+02          0.0+00
CTRIA3*               28               2              39              32*       
*                     37  1.335020876+02          0.0+00
CTRIA3*               29               2              38              37*       
*                     29  1.281934229+02          0.0+00
CTRIA3*               30               2              26              43*       
*                     42 1.2710748687+02          0.0+00
CTRIA3*               31               2              40              41*       
*                     43 1.2336489616+02          0.0+00
CTRIA3*               32               2              35              41*       
$ ... 25 like lines cut
$--1---><------2-------><------3-------><------4-------><------5-------><--6--->
$$$$$$$$$$$$$$$$$$$$$$$$$$$$$$$$$ temperature $$$$$$$$$$$$$$$$$$$$$$$$$$$$$$$$$$
TEMP*                  1              13       3.2615+02                *       
*                                                                       
TEMP*                  1              14       3.2615+02                *       
*                                                                       
TEMP*                  1              12       3.2615+02                *       
*                                                                       
TEMP*                  1               4       3.2615+02                *       
*                                                                       
TEMP*                  1               1       3.2615+02                *       
*                                                                       
TEMP*                  1              15       3.2615+02                *       
*                                                                       
TEMP*                  1              18       3.2615+02                *       
*                                                                       
TEMP*                  1              17       3.2615+02                *       
*                                                                       
TEMP*                  1              15       3.2615+02                *       
*                                                                       
TEMP*                  1               5       3.2615+02                *       
*                                                                       
TEMP*                  1              16       3.2615+02                *       
*                                                                       
TEMP*                  1              18       3.2615+02                *       
*                                                                       
TEMP*                  1              10       3.2615+02                *       
*                                                                       
TEMP*                  1              18       3.2615+02                *       
*                                                                       
TEMP*                  1              16       3.2615+02                *       
*                                                                       
TEMP*                  1               9       3.2615+02                *       
*                                                                       
TEMP*                  1              17       3.2615+02                *       
*                                                                       
TEMP*                  1              18       3.2615+02                *       
*                                                                       
TEMP*                  1              10       3.2615+02                *       
*                                                                       
TEMP*                  1               8       3.2615+02                *       
*                                                                       
TEMP*                  1              42       3.2615+02                *       
*                                                                       
TEMP*                  1              43       3.2615+02                *       
*                                                                       
TEMP*                  1              35       3.2615+02                *       
*                                                                       
TEMP*                  1              34       3.2615+02                *       
*                                                                       
TEMP*                  1              45       3.2615+02                *       
*                                                                       
TEMP*                  1              48       3.2615+02                *       
*                                                                       
TEMP*                  1              45       3.2615+02                *       
*                                                                       
TEMP*                  1              31       3.2615+02                *       
*                                                                       
TEMP*                  1              46       3.2615+02                *       
*                                                                       
TEMP*                  1              48       3.2615+02                *       
*                                                                       
TEMP*                  1              46       3.2615+02                *       
*                                                                       
TEMP*                  1              28       3.2615+02                *       
*                                                                       
TEMP*                  1               9       3.2615+02                *       
*                                                                       
TEMP*                  1              20       3.2615+02                *       
*                                                                       
TEMP*                  1              23       3.2615+02                *       
*                                                                       
TEMP*                  1              11       3.2615+02                *       
*                                                                       
TEMP*                  1              20       3.2615+02                *       
*                                                                       
TEMP*                  1               6       3.2615+02                *       
*                                                                       
TEMP*                  1              21       3.2615+02                *       
*                                                                       
TEMP*                  1              23       3.2615+02                *       
*                                                                       
TEMP*                  1              23       3.2615+02                *       
*                                                                       
TEMP*                  1              21       3.2615+02                *       
*                                                                       
TEMP*                  1               3       3.2615+02                *       
*                                                                       
TEMP*                  1              22       3.2615+02                *       
*                                                                       
TEMP*                  1              36       3.2615+02                *       
*                                                                       
TEMP*                  1              48       3.2615+02                *       
*                                                                       
TEMP*                  1              47       3.2615+02                *       
*                                                                       
TEMP*                  1              33       3.2615+02                *       
*                                                                       
TEMP*                  1              35       3.2615+02                *       
*                                                                       
TEMP*                  1              39       3.2615+02                *       
*                                                                       
TEMP*                  1              39       3.2615+02                *       
*                                                                       
TEMP*                  1              35       3.2615+02                *       
*                                                                       
TEMP*                  1              34       3.2615+02                *       
*                                                                       
TEMP*                  1              39       3.2615+02                *       
*                                                                       
TEMP*                  1              36       3.2615+02                *       
*                                                                       
TEMP*                  1              32       3.2615+02                *       
*                                                                       
TEMP*                  1              16       3.2615+02                *       
*                                                                       
TEMP*                  1               5       3.2615+02                *       
*                                                                       
TEMP*                  1              24       3.2615+02                *       
*                                                                       
TEMP*                  1              19       3.2615+02                *       
*                                                                       
TEMP*                  1              24       3.2615+02                *       
*                                                                       
TEMP*                  1               2       3.2615+02                *       
*                                                                       
TEMP*                  1              25       3.2615+02                *       
*                                                                       
TEMP*                  1              19       3.2615+02                *       
*                                                                       
TEMP*                  1              25       3.2615+02                *       
*                                                                       
TEMP*                  1               6       3.2615+02                *       
*                                                                       
TEMP*                  1              20       3.2615+02                *       
*                                                                       
TEMP*                  1              19       3.2615+02                *       
*                                                                       
TEMP*                  1              20       3.2615+02                *       
*                                                                       
TEMP*                  1               9       3.2615+02                *       
*                                                                       
TEMP*                  1              16       3.2615+02                *       
*                                                                       
TEMP*                  1              19       3.2615+02                *       
*                                                                       
TEMP*                  1              36       3.2615+02                *       
*                                                                       
TEMP*                  1              47       3.2615+02                *       
*                                                                       
TEMP*                  1              32       3.2615+02                *       
*                                                                       
TEMP*                  1              44       3.2615+02                *       
*                                                                       
TEMP*                  1              30       3.2615+02                *       
*                                                                       
TEMP*                  1              49       3.2615+02                *       
*                                                                       
TEMP*                  1              49       3.2615+02                *       
*                                                                       
TEMP*                  1              27       3.2615+02                *       
*                                                                       
TEMP*                  1              50       3.2615+02                *       
*                                                                       
TEMP*                  1              44       3.2615+02                *       
*                                                                       
TEMP*                  1              50       3.2615+02                *       
*                                                                       
TEMP*                  1              31       3.2615+02                *       
*                                                                       
TEMP*                  1              44       3.2615+02                *       
*                                                                       
TEMP*                  1              49       3.2615+02                *       
*                                                                       
TEMP*                  1              50       3.2615+02                *       
*                                                                       
TEMP*                  1              33       3.2615+02                *       
*                                                                       
TEMP*                  1              39       3.2615+02                *       
*                                                                       
TEMP*                  1              38       3.2615+02                *       
*                                                                       
TEMP*                  1              39       3.2615+02                *       
*                                                                       
TEMP*                  1              34       3.2615+02                *       
*                                                                       
TEMP*                  1              36       3.2615+02                *       
*                                                                       
TEMP*                  1              39       3.2615+02                *       
*                                                                       
TEMP*                  1              32       3.2615+02                *       
*                                                                       
TEMP*                  1              37       3.2615+02                *       
*                                                                       
TEMP*                  1              38       3.2615+02                *       
*                                                                       
TEMP*                  1              37       3.2615+02                *       
*                                                                       
TEMP*                  1              29       3.2615+02                *       
*                                                                       
TEMP*                  1              26       3.2615+02                *       
*                                                                       
TEMP*                  1              43       3.2615+02                *       
*                                                                       
TEMP*                  1              42       3.2615+02                *       
*                                                                       
TEMP*                  1              40       3.2615+02                *       
*                                                                       
TEMP*                  1              41       3.2615+02                *       
*                                                                       
TEMP*                  1              43       3.2615+02                *       
*                                                                       
TEMP*                  1              35       3.2615+02                *       
*                                                                       
TEMP*                  1              41       3.2615+02                *       
*                                                                       
TEMP*                  1              34       3.2615+02                *       
*                                                                       
TEMP*                  1              42       3.2615+02                *       
*                                                                       
TEMP*                  1              35       3.2615+02                *       
*                                                                       
TEMP*                  1              33       3.2615+02                *       
*                                                                       
TEMP*                  1              30       3.2615+02                *       
*                                                                       
TEMP*                  1              44       3.2615+02                *       
*                                                                       
TEMP*                  1              41       3.2615+02                *       
*                                                                       
TEMP*                  1              44       3.2615+02                *       
*                                                                       
TEMP*                  1              31       3.2615+02                *       
*                                                                       
TEMP*                  1              45       3.2615+02                *       
*                                                                       
TEMP*                  1              41       3.2615+02                *       
*                                                                       
TEMP*                  1              45       3.2615+02                *       
*                                                                       
TEMP*                  1              34       3.2615+02                *       
*                                                                       
TEMP*                  1              41       3.2615+02                *       
*                                                                       
TEMP*                  1              44       3.2615+02                *       
*                                                                       
TEMP*                  1              45       3.2615+02                *       
*                                                                       
TEMP*                  1              34       3.2615+02                *       
*                                                                       
TEMP*                  1              48       3.2615+02                *       
*                                                                       
TEMP*                  1              36       3.2615+02                *       
*                                                                       
TEMP*                  1              45       3.2615+02                *       
*                                                                       
TEMP*                  1              46       3.2615+02                *       
*                                                                       
TEMP*                  1              48       3.2615+02                *       
*                                                                       
TEMP*                  1              48       3.2615+02                *       
*                                                                       
TEMP*                  1              28       3.2615+02                *       
*                                                                       
TEMP*                  1              47       3.2615+02                *       
*                                                                       
TEMP*                  1              11       3.2615+02                *       
*                                                                       
TEMP*                  1              23       3.2615+02                *       
*                                                                       
TEMP*                  1              22       3.2615+02                *       
*                                                                       
TEMP*                  1               7       3.2615+02                *       
*                                                                       
TEMP*                  1              38       3.2615+02                *       
*                                                                       
TEMP*                  1              39       3.2615+02                *       
*                                                                       
TEMP*                  1              37       3.2615+02                *       
*                                                                       
TEMP*                  1              26       3.2615+02                *       
*                                                                       
TEMP*                  1              40       3.2615+02                *       
*                                                                       
TEMP*                  1              43       3.2615+02                *       
*                                                                       
TEMP*                  1              40       3.2615+02                *       
*                                                                       
TEMP*                  1              30       3.2615+02                *       
*                                                                       
TEMP*                  1              41       3.2615+02                *       
*                                                                       
TEMP*                  1              35       3.2615+02                *       
*                                                                       
TEMP*                  1              43       3.2615+02                *       
*                                                                       
TEMP*                  1              41       3.2615+02                *       
*                                                                       
TEMP*                  1               8       3.2615+02                *       
*                                                                       
TEMP*                  1              10       3.2615+02                *       
*                                                                       
TEMP*                  1              14       3.2615+02                *       
*                                                                       
TEMP*                  1              13       3.2615+02                *       
*                                                                       
TEMP*                  1              14       3.2615+02                *       
*                                                                       
TEMP*                  1              10       3.2615+02                *       
*                                                                       
TEMP*                  1               9       3.2615+02                *       
*                                                                       
TEMP*                  1              11       3.2615+02                *       
*                                                                       
TEMP*                  1              14       3.2615+02                *       
*                                                                       
TEMP*                  1              11       3.2615+02                *       
*                                                                       
TEMP*                  1               7       3.2615+02                *       
*                                                                       
TEMP*                  1              12       3.2615+02                *       
*                                                                       
$--1---><------2-------><------3-------><------4-------><------5-------><--6--->
TEMPD*                 1       3.2315+02                                *       
*                                                                       
$--1---><------2-------><------3-------><------4-------><------5-------><--6--->
ENDDATA
