$ Generated by Mecway 29
$-------------EXECUTIVE CONTROL SECTION-------------
SOL 101
CEND
$---------------CASE CONTROL SECTION----------------
DISPLACEMENT = ALL
$
  ACCELERATION(PRINT,PLOT) = ALL
  DISPLACEMENT(PRINT, PLOT) = ALL
  GPFORCE(PRINT, PLOT) = ALL
  MPCFORCES(PRINT, PLOT) = ALL
  OLOAD(PRINT, PLOT)= ALL
  SPCFORCES(PRINT, PLOT) = ALL
  FORCE(PRINT, PLOT) = ALL
  STRESS(PRINT, PLOT, CORNER)= ALL
  STRAIN(PRINT, PLOT, CORNER)= ALL
$
SPC = 1
LOAD = 1
BEGIN BULK
$-----------------BULK DATA SECTION-----------------
$
  PARAM, POST,-1
$
GRID*                  1               0          5.0+00 4.3296372854-17*       
*       -7.0710678119-01               0
GRID*                  2               0          6.0+00 4.3296372854-17*       
*       -7.0710678119-01               0
GRID*                  3               0          6.0+00 7.0710678119-01*       
*                 0.0+00               0
GRID*                  4               0          5.0+00 7.0710678119-01*       
*                 0.0+00               0
GRID*                  5               0          5.0+00-7.0710678119-01*       
*        8.6592745707-17               0
GRID*                  6               0          6.0+00-7.0710678119-01*       
*        8.6592745707-17               0
GRID*                  7               0          6.0+00 4.3296372854-17*       
*        7.0710678119-01               0
GRID*                  8               0          5.0+00 4.3296372854-17*       
*        7.0710678119-01               0
GRID*                  9               0 3.5355339059+00-7.0710678119-01*       
*       -3.5355339059+00               0
GRID*                 10               0 4.2426406871+00-7.0710678119-01*       
*       -4.2426406871+00               0
GRID*                 11               0 3.7426406871+00 -1.483499713-15*       
*       -4.7426406871+00               0
GRID*                 12               0 3.0355339059+00 4.1688331383-15*       
*       -4.0355339059+00               0
GRID*                 13               0 4.0355339059+00 1.0990647211-15*       
*       -3.0355339059+00               0
GRID*                 14               0 4.7426406871+00 6.2803698347-16*       
*       -3.7426406871+00               0
GRID*                 15               0 4.2426406871+00 7.0710678119-01*       
*       -4.2426406871+00               0
GRID*                 16               0 3.5355339059+00 7.0710678119-01*       
*       -3.5355339059+00               0
GRID*                 17               0-3.0355339059+00 4.0355339059+00*       
*        1.0990647211-15               0
GRID*                 18               0-3.7426406871+00 4.7426406871+00*       
*        6.2803698347-16               0
GRID*                 19               0-4.2426406871+00 4.2426406871+00*       
*       -7.0710678119-01               0
GRID*                 20               0-3.5355339059+00 3.5355339059+00*       
*       -7.0710678119-01               0
$ ... 248 like lines cut
$--1---><------2-------><------3-------><------4-------><------5-------><--6--->
$$$$$$$$$$$$$$$$$$$$$$$$$$$$$$$$$$$ Material $$$$$$$$$$$$$$$$$$$$$$$$$$$$$$$$$$$
MAT9*                  1          2.0+11          0.0+00          0.0+00*       
*                 0.0+00          0.0+00          0.0+00          1.5+11*       
*                 0.0+00          0.0+00          0.0+00          0.0+00*       
*                 1.0+11          0.0+00          0.0+00          0.0+00*       
*                 8.0+10          0.0+00          0.0+00          8.0+10*       
*                 0.0+00          8.0+10          0.0+00          0.0+00*       
*                 0.0+00          0.0+00          0.0+00          0.0+00*       
*                 0.0+00          0.0+00          0.0+00
$--1---><------2-------><------3-------><------4-------><------5-------><--6--->
SPC*                   1               1               1          0.0+00*       
*                                                                       
SPC*                   1               1               2          0.0+00*       
*                                                                       
SPC*                   1               1               3          0.0+00*       
*                                                                       
SPC*                   1               4               1          0.0+00*       
*                                                                       
SPC*                   1               4               2          0.0+00*       
*                                                                       
SPC*                   1               4               3          0.0+00*       
*                                                                       
SPC*                   1               5               1          0.0+00*       
*                                                                       
SPC*                   1               5               2          0.0+00*       
*                                                                       
SPC*                   1               5               3          0.0+00*       
*                                                                       
SPC*                   1               8               1          0.0+00*       
*                                                                       
SPC*                   1               8               2          0.0+00*       
*                                                                       
SPC*                   1               8               3          0.0+00*       
*                                                                       
SPC*                   1               9               1          0.0+00*       
*                                                                       
SPC*                   1               9               2          0.0+00*       
*                                                                       
SPC*                   1               9               3          0.0+00*       
*                                                                       
SPC*                   1              12               1          0.0+00*       
*                                                                       
SPC*                   1              12               2          0.0+00*       
*                                                                       
SPC*                   1              12               3          0.0+00*       
*                                                                       
SPC*                   1              13               1          0.0+00*       
*                                                                       
SPC*                   1              13               2          0.0+00*       
*                                                                       
SPC*                   1              13               3          0.0+00*       
*                                                                       
SPC*                   1              16               1          0.0+00*       
*                                                                       
SPC*                   1              16               2          0.0+00*       
*                                                                       
SPC*                   1              16               3          0.0+00*       
*                                                                       
SPC*                   1              17               1          0.0+00*       
*                                                                       
SPC*                   1              17               2          0.0+00*       
*                                                                       
SPC*                   1              17               3          0.0+00*       
*                                                                       
SPC*                   1              20               1          0.0+00*       
*                                                                       
SPC*                   1              20               2          0.0+00*       
*                                                                       
SPC*                   1              20               3          0.0+00*       
*                                                                       
SPC*                   1              21               1          0.0+00*       
*                                                                       
SPC*                   1              21               2          0.0+00*       
*                                                                       
SPC*                   1              21               3          0.0+00*       
*                                                                       
SPC*                   1              24               1          0.0+00*       
*                                                                       
SPC*                   1              24               2          0.0+00*       
*                                                                       
SPC*                   1              24               3          0.0+00*       
*                                                                       
SPC*                   1              25               1          0.0+00*       
*                                                                       
SPC*                   1              25               2          0.0+00*       
*                                                                       
SPC*                   1              25               3          0.0+00*       
*                                                                       
SPC*                   1              28               1          0.0+00*       
*                                                                       
SPC*                   1              28               2          0.0+00*       
*                                                                       
SPC*                   1              28               3          0.0+00*       
*                                                                       
SPC*                   1              29               1          0.0+00*       
*                                                                       
SPC*                   1              29               2          0.0+00*       
*                                                                       
SPC*                   1              29               3          0.0+00*       
*                                                                       
SPC*                   1              32               1          0.0+00*       
*                                                                       
SPC*                   1              32               2          0.0+00*       
*                                                                       
SPC*                   1              32               3          0.0+00*       
*                                                                       
SPC*                   1              33               1          0.0+00*       
*                                                                       
SPC*                   1              33               2          0.0+00*       
*                                                                       
SPC*                   1              33               3          0.0+00*       
*                                                                       
SPC*                   1              36               1          0.0+00*       
*                                                                       
SPC*                   1              36               2          0.0+00*       
*                                                                       
SPC*                   1              36               3          0.0+00*       
*                                                                       
SPC*                   1              37               1          0.0+00*       
*                                                                       
SPC*                   1              37               2          0.0+00*       
*                                                                       
SPC*                   1              37               3          0.0+00*       
*                                                                       
SPC*                   1              40               1          0.0+00*       
*                                                                       
SPC*                   1              40               2          0.0+00*       
*                                                                       
SPC*                   1              40               3          0.0+00*       
*                                                                       
SPC*                   1              41               1          0.0+00*       
*                                                                       
SPC*                   1              41               2          0.0+00*       
*                                                                       
SPC*                   1              41               3          0.0+00*       
*                                                                       
SPC*                   1              44               1          0.0+00*       
*                                                                       
SPC*                   1              44               2          0.0+00*       
*                                                                       
SPC*                   1              44               3          0.0+00*       
*                                                                       
SPC*                   1              45               1          0.0+00*       
*                                                                       
SPC*                   1              45               2          0.0+00*       
*                                                                       
SPC*                   1              45               3          0.0+00*       
*                                                                       
SPC*                   1              48               1          0.0+00*       
*                                                                       
SPC*                   1              48               2          0.0+00*       
*                                                                       
SPC*                   1              48               3          0.0+00*       
*                                                                       
SPC*                   1              49               1          0.0+00*       
*                                                                       
SPC*                   1              49               2          0.0+00*       
*                                                                       
SPC*                   1              49               3          0.0+00*       
*                                                                       
SPC*                   1              52               1          0.0+00*       
*                                                                       
SPC*                   1              52               2          0.0+00*       
*                                                                       
SPC*                   1              52               3          0.0+00*       
*                                                                       
SPC*                   1              53               1          0.0+00*       
*                                                                       
SPC*                   1              53               2          0.0+00*       
*                                                                       
SPC*                   1              53               3          0.0+00*       
*                                                                       
SPC*                   1              56               1          0.0+00*       
*                                                                       
SPC*                   1              56               2          0.0+00*       
*                                                                       
SPC*                   1              56               3          0.0+00*       
*                                                                       
SPC*                   1              57               1          0.0+00*       
*                                                                       
SPC*                   1              57               2          0.0+00*       
*                                                                       
SPC*                   1              57               3          0.0+00*       
*                                                                       
SPC*                   1              60               1          0.0+00*       
*                                                                       
SPC*                   1              60               2          0.0+00*       
*                                                                       
SPC*                   1              60               3          0.0+00*       
*                                                                       
SPC*                   1              61               1          0.0+00*       
*                                                                       
SPC*                   1              61               2          0.0+00*       
*                                                                       
SPC*                   1              61               3          0.0+00*       
*                                                                       
SPC*                   1              64               1          0.0+00*       
*                                                                       
SPC*                   1              64               2          0.0+00*       
*                                                                       
SPC*                   1              64               3          0.0+00*       
*                                                                       
SPC*                   1              65               1          0.0+00*       
*                                                                       
SPC*                   1              65               2          0.0+00*       
*                                                                       
SPC*                   1              65               3          0.0+00*       
*                                                                       
SPC*                   1              68               1          0.0+00*       
*                                                                       
SPC*                   1              68               2          0.0+00*       
*                                                                       
SPC*                   1              68               3          0.0+00*       
*                                                                       
SPC*                   1              69               1          0.0+00*       
*                                                                       
SPC*                   1              69               2          0.0+00*       
*                                                                       
SPC*                   1              69               3          0.0+00*       
*                                                                       
SPC*                   1              72               1          0.0+00*       
*                                                                       
SPC*                   1              72               2          0.0+00*       
*                                                                       
SPC*                   1              72               3          0.0+00*       
*                                                                       
SPC*                   1              73               1          0.0+00*       
*                                                                       
SPC*                   1              73               2          0.0+00*       
*                                                                       
SPC*                   1              73               3          0.0+00*       
*                                                                       
SPC*                   1              76               1          0.0+00*       
*                                                                       
SPC*                   1              76               2          0.0+00*       
*                                                                       
SPC*                   1              76               3          0.0+00*       
*                                                                       
SPC*                   1              77               1          0.0+00*       
*                                                                       
SPC*                   1              77               2          0.0+00*       
*                                                                       
SPC*                   1              77               3          0.0+00*       
*                                                                       
SPC*                   1              80               1          0.0+00*       
*                                                                       
SPC*                   1              80               2          0.0+00*       
*                                                                       
SPC*                   1              80               3          0.0+00*       
*                                                                       
SPC*                   1              81               1          0.0+00*       
*                                                                       
SPC*                   1              81               2          0.0+00*       
*                                                                       
SPC*                   1              81               3          0.0+00*       
*                                                                       
SPC*                   1              84               1          0.0+00*       
*                                                                       
SPC*                   1              84               2          0.0+00*       
*                                                                       
SPC*                   1              84               3          0.0+00*       
*                                                                       
SPC*                   1              85               1          0.0+00*       
*                                                                       
SPC*                   1              85               2          0.0+00*       
*                                                                       
SPC*                   1              85               3          0.0+00*       
*                                                                       
SPC*                   1              88               1          0.0+00*       
*                                                                       
SPC*                   1              88               2          0.0+00*       
*                                                                       
SPC*                   1              88               3          0.0+00*       
*                                                                       
SPC*                   1              89               1          0.0+00*       
*                                                                       
SPC*                   1              89               2          0.0+00*       
*                                                                       
SPC*                   1              89               3          0.0+00*       
*                                                                       
SPC*                   1              92               1          0.0+00*       
*                                                                       
SPC*                   1              92               2          0.0+00*       
*                                                                       
SPC*                   1              92               3          0.0+00*       
*                                                                       
SPC*                   1              93               1          0.0+00*       
*                                                                       
SPC*                   1              93               2          0.0+00*       
*                                                                       
SPC*                   1              93               3          0.0+00*       
*                                                                       
SPC*                   1              96               1          0.0+00*       
*                                                                       
SPC*                   1              96               2          0.0+00*       
*                                                                       
SPC*                   1              96               3          0.0+00*       
*                                                                       
SPC*                   1              97               1          0.0+00*       
*                                                                       
SPC*                   1              97               2          0.0+00*       
*                                                                       
SPC*                   1              97               3          0.0+00*       
*                                                                       
SPC*                   1             100               1          0.0+00*       
*                                                                       
SPC*                   1             100               2          0.0+00*       
*                                                                       
SPC*                   1             100               3          0.0+00*       
*                                                                       
SPC*                   1             101               1          0.0+00*       
*                                                                       
SPC*                   1             101               2          0.0+00*       
*                                                                       
SPC*                   1             101               3          0.0+00*       
*                                                                       
SPC*                   1             104               1          0.0+00*       
*                                                                       
SPC*                   1             104               2          0.0+00*       
*                                                                       
SPC*                   1             104               3          0.0+00*       
*                                                                       
SPC*                   1             105               1          0.0+00*       
*                                                                       
SPC*                   1             105               2          0.0+00*       
*                                                                       
SPC*                   1             105               3          0.0+00*       
*                                                                       
SPC*                   1             108               1          0.0+00*       
*                                                                       
SPC*                   1             108               2          0.0+00*       
*                                                                       
SPC*                   1             108               3          0.0+00*       
*                                                                       
SPC*                   1             109               1          0.0+00*       
*                                                                       
SPC*                   1             109               2          0.0+00*       
*                                                                       
SPC*                   1             109               3          0.0+00*       
*                                                                       
SPC*                   1             112               1          0.0+00*       
*                                                                       
SPC*                   1             112               2          0.0+00*       
*                                                                       
SPC*                   1             112               3          0.0+00*       
*                                                                       
SPC*                   1             113               1          0.0+00*       
*                                                                       
SPC*                   1             113               2          0.0+00*       
*                                                                       
SPC*                   1             113               3          0.0+00*       
*                                                                       
SPC*                   1             116               1          0.0+00*       
*                                                                       
SPC*                   1             116               2          0.0+00*       
*                                                                       
SPC*                   1             116               3          0.0+00*       
*                                                                       
SPC*                   1             117               1          0.0+00*       
*                                                                       
SPC*                   1             117               2          0.0+00*       
*                                                                       
SPC*                   1             117               3          0.0+00*       
*                                                                       
SPC*                   1             120               1          0.0+00*       
*                                                                       
SPC*                   1             120               2          0.0+00*       
*                                                                       
SPC*                   1             120               3          0.0+00*       
*                                                                       
SPC*                   1             121               1          0.0+00*       
*                                                                       
SPC*                   1             121               2          0.0+00*       
*                                                                       
SPC*                   1             121               3          0.0+00*       
*                                                                       
SPC*                   1             124               1          0.0+00*       
*                                                                       
SPC*                   1             124               2          0.0+00*       
*                                                                       
SPC*                   1             124               3          0.0+00*       
*                                                                       
SPC*                   1             125               1          0.0+00*       
*                                                                       
SPC*                   1             125               2          0.0+00*       
*                                                                       
SPC*                   1             125               3          0.0+00*       
*                                                                       
SPC*                   1             128               1          0.0+00*       
*                                                                       
SPC*                   1             128               2          0.0+00*       
*                                                                       
SPC*                   1             128               3          0.0+00*       
*                                                                       
SPC*                   1             129               1          0.0+00*       
*                                                                       
SPC*                   1             129               2          0.0+00*       
*                                                                       
SPC*                   1             129               3          0.0+00*       
*                                                                       
SPC*                   1             132               1          0.0+00*       
*                                                                       
SPC*                   1             132               2          0.0+00*       
*                                                                       
SPC*                   1             132               3          0.0+00*       
*                                                                       
SPC*                   1             133               1          0.0+00*       
*                                                                       
SPC*                   1             133               2          0.0+00*       
*                                                                       
SPC*                   1             133               3          0.0+00*       
*                                                                       
SPC*                   1             136               1          0.0+00*       
*                                                                       
SPC*                   1             136               2          0.0+00*       
*                                                                       
SPC*                   1             136               3          0.0+00*       
*                                                                       
SPC*                   1             137               1          0.0+00*       
*                                                                       
SPC*                   1             137               2          0.0+00*       
*                                                                       
SPC*                   1             137               3          0.0+00*       
*                                                                       
SPC*                   1             140               1          0.0+00*       
*                                                                       
SPC*                   1             140               2          0.0+00*       
*                                                                       
SPC*                   1             140               3          0.0+00*       
*                                                                       
SPC*                   1             141               1          0.0+00*       
*                                                                       
SPC*                   1             141               2          0.0+00*       
*                                                                       
SPC*                   1             141               3          0.0+00*       
*                                                                       
SPC*                   1             144               1          0.0+00*       
*                                                                       
SPC*                   1             144               2          0.0+00*       
*                                                                       
SPC*                   1             144               3          0.0+00*       
*                                                                       
$--1---><------2-------><------3-------><------4-------><------5-------><--6--->
$$$$$$$$$$$$$$$$$$$$$$$$$$$$$$$$$$$ Default $$$$$$$$$$$$$$$$$$$$$$$$$$$$$$$$$$$$
CORD2R*                1               0          0.0+00          0.0+00*       
*                 0.0+00          0.0+00         -1.0+00          0.0+00*       
*                 1.0+00          0.0+00          0.0+00                *       
*                                                                       
PSOLID*                2               1               1               2*       
*                                   FULL
CHEXA*                 1               2               1               2*       
*                      3               4               5               6*       
*                      7               8                                *       
*                                                                       
CORD2R*                3               0          0.0+00          0.0+00*       
*                 0.0+00          0.0+00         -1.0+00         -1.0-12*       
*        7.0710678119-01          0.0+00-7.0710678119-01                *       
*                                                                       
PSOLID*                4               1               3               2*       
*                                   FULL
CHEXA*                 2               4               9              10*       
*                     11              12              13              14*       
*                     15              16                                *       
*                                                                       
CORD2R*                5               0          0.0+00          0.0+00*       
*                 0.0+00 7.0710678119-01 7.0710678119-01          0.0+00*       
*       -7.0710678119-01 7.0710678119-01          0.0+00                *       
*                                                                       
PSOLID*                6               1               5               2*       
*                                   FULL
CHEXA*                 3               6              17              18*       
*                     19              20              21              22*       
*                     23              24                                *       
*                                                                       
CORD2R*                7               0          0.0+00          0.0+00*       
*                 0.0+00         -1.0-12          1.0+00          0.0+00*       
*       -7.0710678119-01         -1.0-12-7.0710678119-01                *       
*                                                                       
PSOLID*                8               1               7               2*       
*                                   FULL
CHEXA*                 4               8              25              26*       
*                     27              28              29              30*       
*                     31              32                                *       
*                                                                       
CORD2R*                9               0          0.0+00          0.0+00*       
*                 0.0+00          0.0+00          1.0+00          0.0+00*       
*                -1.0+00          0.0+00         -1.0-12                *       
*                                                                       
PSOLID*               10               1               9               2*       
*                                   FULL
CHEXA*                 5              10              33              34*       
*                     35              36              37              38*       
*                     39              40                                *       
*                                                                       
CORD2R*               11               0          0.0+00          0.0+00*       
*                 0.0+00         -1.0-12          1.0+00          0.0+00*       
*       -7.0710678119-01         -1.0-12 7.0710678119-01                *       
*                                                                       
PSOLID*               12               1              11               2*       
*                                   FULL
CHEXA*                 6              12              41              42*       
*                     43              44              45              46*       
*                     47              48                                *       
*                                                                       
CORD2R*               13               0          0.0+00          0.0+00*       
*                 0.0+00          1.0+00         -1.0-12          0.0+00*       
*                 0.0+00          1.0+00         -1.0-12                *       
*                                                                       
PSOLID*               14               1              13               2*       
*                                   FULL
CHEXA*                 7              14              49              50*       
*                     51              52              53              54*       
*                     55              56                                *       
*                                                                       
CORD2R*               15               0          0.0+00          0.0+00*       
*                 0.0+00          0.0+00         -1.0+00          0.0+00*       
*        7.0710678119-01          0.0+00 7.0710678119-01                *       
*                                                                       
PSOLID*               16               1              15               2*       
*                                   FULL
CHEXA*                 8              16              57              58*       
*                     59              60              61              62*       
*                     63              64                                *       
*                                                                       
CORD2R*               17               0          0.0+00          0.0+00*       
*                 0.0+00 7.0710678119-01-7.0710678119-01          0.0+00*       
*        7.0710678119-01 7.0710678119-01         -1.0-12                *       
*                                                                       
PSOLID*               18               1              17               2*       
*                                   FULL
CHEXA*                 9              18              65              66*       
*                     67              68              69              70*       
*                     71              72                                *       
*                                                                       
CORD2R*               19               0          0.0+00          0.0+00*       
*                 0.0+00          1.0+00          0.0+00          0.0+00*       
*                 0.0+00          1.0+00          0.0+00                *       
*                                                                       
PSOLID*               20               1              19               2*       
*                                   FULL
CHEXA*                10              20              73              74*       
*                     75              76              77              78*       
*                     79              80                                *       
*                                                                       
CORD2R*               21               0          0.0+00          0.0+00*       
*                 0.0+00-7.0710678119-01          0.0+00 7.0710678119-01*       
*        7.0710678119-01          0.0+00 7.0710678119-01                *       
*                                                                       
PSOLID*               22               1              21               2*       
*                                   FULL
CHEXA*                11              22              81              82*       
*                     83              84              85              86*       
*                     87              88                                *       
*                                                                       
CORD2R*               23               0          0.0+00          0.0+00*       
*                 0.0+00-7.0710678119-01 7.0710678119-01          0.0+00*       
*       -7.0710678119-01-7.0710678119-01          0.0+00                *       
*                                                                       
PSOLID*               24               1              23               2*       
*                                   FULL
CHEXA*                12              24              89              90*       
*                     91              92              93              94*       
*                     95              96                                *       
*                                                                       
CORD2R*               25               0          0.0+00          0.0+00*       
*                 0.0+00 7.0710678119-01          0.0+00 7.0710678119-01*       
*        7.0710678119-01          0.0+00-7.0710678119-01                *       
*                                                                       
PSOLID*               26               1              25               2*       
*                                   FULL
CHEXA*                13              26              97              98*       
*                     99             100             101             102*       
*                    103             104                                *       
*                                                                       
CORD2R*               27               0          0.0+00          0.0+00*       
*                 0.0+00         -1.0+00          0.0+00          0.0+00*       
*                 0.0+00         -1.0+00          0.0+00                *       
*                                                                       
PSOLID*               28               1              27               2*       
*                                   FULL
CHEXA*                14              28             105             106*       
*                    107             108             109             110*       
*                    111             112                                *       
*                                                                       
CORD2R*               29               0          0.0+00          0.0+00*       
*                 0.0+00 7.0710678119-01          0.0+00-7.0710678119-01*       
*       -7.0710678119-01          0.0+00-7.0710678119-01                *       
*                                                                       
PSOLID*               30               1              29               2*       
*                                   FULL
CHEXA*                15              30             113             114*       
*                    115             116             117             118*       
*                    119             120                                *       
*                                                                       
CORD2R*               31               0          0.0+00          0.0+00*       
*                 0.0+00          0.0+00          1.0+00          0.0+00*       
*                -1.0+00          0.0+00          0.0+00                *       
*                                                                       
PSOLID*               32               1              31               2*       
*                                   FULL
CHEXA*                16              32             121             122*       
*                    123             124             125             126*       
*                    127             128                                *       
*                                                                       
CORD2R*               33               0          0.0+00          0.0+00*       
*                 0.0+00-7.0710678119-01          0.0+00-7.0710678119-01*       
*       -7.0710678119-01          0.0+00 7.0710678119-01                *       
*                                                                       
PSOLID*               34               1              33               2*       
*                                   FULL
CHEXA*                17              34             129             130*       
*                    131             132             133             134*       
*                    135             136                                *       
*                                                                       
CORD2R*               35               0          0.0+00          0.0+00*       
*                 0.0+00 7.0710678119-01 7.0710678119-01          0.0+00*       
*       -7.0710678119-01 7.0710678119-01          0.0+00                *       
*                                                                       
PSOLID*               36               1              35               2*       
*                                   FULL
CHEXA*                18              36             137             138*       
*                    139             140             141             142*       
*                    143             144                                *       
*                                                                       
$--1---><------2-------><------3-------><------4-------><------5-------><--6--->
$$$$$$$$$$$$$$$$$$$$$$$$$$$$$$$$$$$$ force $$$$$$$$$$$$$$$$$$$$$$$$$$$$$$$$$$$$$
FORCE*                 1               2               0          1.0+00*       
*                1.25+06          0.0+00          0.0+00
FORCE*                 1               3               0          1.0+00*       
*                1.25+06          0.0+00          0.0+00
FORCE*                 1               6               0          1.0+00*       
*                1.25+06          0.0+00          0.0+00
FORCE*                 1               7               0          1.0+00*       
*                1.25+06          0.0+00          0.0+00
FORCE*                 1              74               0          1.0+00*       
*                1.25+06          0.0+00          0.0+00
FORCE*                 1              75               0          1.0+00*       
*                1.25+06          0.0+00          0.0+00
FORCE*                 1              78               0          1.0+00*       
*                1.25+06          0.0+00          0.0+00
FORCE*                 1              79               0          1.0+00*       
*                1.25+06          0.0+00          0.0+00
$--1---><------2-------><------3-------><------4-------><------5-------><--6--->
$$$$$$$$$$$$$$$$$$$$$$$$$$$$$$$$$$$$ force $$$$$$$$$$$$$$$$$$$$$$$$$$$$$$$$$$$$$
FORCE*                 1              66               0          1.0+00*       
*        8.8388347648+05 8.8388347648+05          0.0+00
FORCE*                 1              67               0          1.0+00*       
*        8.8388347648+05 8.8388347648+05          0.0+00
FORCE*                 1              70               0          1.0+00*       
*        8.8388347648+05 8.8388347648+05          0.0+00
FORCE*                 1              71               0          1.0+00*       
*        8.8388347648+05 8.8388347648+05          0.0+00
FORCE*                 1             138               0          1.0+00*       
*        8.8388347648+05 8.8388347648+05          0.0+00
FORCE*                 1             139               0          1.0+00*       
*        8.8388347648+05 8.8388347648+05          0.0+00
FORCE*                 1             142               0          1.0+00*       
*        8.8388347648+05 8.8388347648+05          0.0+00
FORCE*                 1             143               0          1.0+00*       
*        8.8388347648+05 8.8388347648+05          0.0+00
$--1---><------2-------><------3-------><------4-------><------5-------><--6--->
$$$$$$$$$$$$$$$$$$$$$$$$$$$$$$$$$$$$ force $$$$$$$$$$$$$$$$$$$$$$$$$$$$$$$$$$$$$
FORCE*                 1              50               0          1.0+00*       
*                 0.0+00         1.25+06          0.0+00
FORCE*                 1              51               0          1.0+00*       
*                 0.0+00         1.25+06          0.0+00
FORCE*                 1              54               0          1.0+00*       
*                 0.0+00         1.25+06          0.0+00
FORCE*                 1              55               0          1.0+00*       
*                 0.0+00         1.25+06          0.0+00
FORCE*                 1             122               0          1.0+00*       
*                 0.0+00         1.25+06          0.0+00
FORCE*                 1             123               0          1.0+00*       
*                 0.0+00         1.25+06          0.0+00
FORCE*                 1             126               0          1.0+00*       
*                 0.0+00         1.25+06          0.0+00
FORCE*                 1             127               0          1.0+00*       
*                 0.0+00         1.25+06          0.0+00
$--1---><------2-------><------3-------><------4-------><------5-------><--6--->
$$$$$$$$$$$$$$$$$$$$$$$$$$$$$$$$$$$$ force $$$$$$$$$$$$$$$$$$$$$$$$$$$$$$$$$$$$$
FORCE*                 1              18               0          1.0+00*       
*       -8.8388347648+05 8.8388347648+05          0.0+00
FORCE*                 1              19               0          1.0+00*       
*       -8.8388347648+05 8.8388347648+05          0.0+00
FORCE*                 1              22               0          1.0+00*       
*       -8.8388347648+05 8.8388347648+05          0.0+00
FORCE*                 1              23               0          1.0+00*       
*       -8.8388347648+05 8.8388347648+05          0.0+00
FORCE*                 1              90               0          1.0+00*       
*       -8.8388347648+05 8.8388347648+05          0.0+00
FORCE*                 1              91               0          1.0+00*       
*       -8.8388347648+05 8.8388347648+05          0.0+00
FORCE*                 1              94               0          1.0+00*       
*       -8.8388347648+05 8.8388347648+05          0.0+00
FORCE*                 1              95               0          1.0+00*       
*       -8.8388347648+05 8.8388347648+05          0.0+00
$--1---><------2-------><------3-------><------4-------><------5-------><--6--->
$$$$$$$$$$$$$$$$$$$$$$$$$$$$$$$$$$$$ force $$$$$$$$$$$$$$$$$$$$$$$$$$$$$$$$$$$$$
FORCE*                 1              34               0          1.0+00*       
*               -1.25+06          0.0+00          0.0+00
FORCE*                 1              35               0          1.0+00*       
*               -1.25+06          0.0+00          0.0+00
FORCE*                 1              38               0          1.0+00*       
*               -1.25+06          0.0+00          0.0+00
FORCE*                 1              39               0          1.0+00*       
*               -1.25+06          0.0+00          0.0+00
FORCE*                 1             106               0          1.0+00*       
*               -1.25+06          0.0+00          0.0+00
FORCE*                 1             107               0          1.0+00*       
*               -1.25+06          0.0+00          0.0+00
FORCE*                 1             110               0          1.0+00*       
*               -1.25+06          0.0+00          0.0+00
FORCE*                 1             111               0          1.0+00*       
*               -1.25+06          0.0+00          0.0+00
$--1---><------2-------><------3-------><------4-------><------5-------><--6--->
$$$$$$$$$$$$$$$$$$$$$$$$$$$$$$$$$$$$ force $$$$$$$$$$$$$$$$$$$$$$$$$$$$$$$$$$$$$
FORCE*                 1              10               0          1.0+00*       
*        8.8388347648+05          0.0+00-8.8388347648+05
FORCE*                 1              11               0          1.0+00*       
*        8.8388347648+05          0.0+00-8.8388347648+05
FORCE*                 1              14               0          1.0+00*       
*        8.8388347648+05          0.0+00-8.8388347648+05
FORCE*                 1              15               0          1.0+00*       
*        8.8388347648+05          0.0+00-8.8388347648+05
FORCE*                 1              82               0          1.0+00*       
*        8.8388347648+05          0.0+00-8.8388347648+05
FORCE*                 1              83               0          1.0+00*       
*        8.8388347648+05          0.0+00-8.8388347648+05
FORCE*                 1              86               0          1.0+00*       
*        8.8388347648+05          0.0+00-8.8388347648+05
FORCE*                 1              87               0          1.0+00*       
*        8.8388347648+05          0.0+00-8.8388347648+05
$--1---><------2-------><------3-------><------4-------><------5-------><--6--->
$$$$$$$$$$$$$$$$$$$$$$$$$$$$$$$$$$$$ force $$$$$$$$$$$$$$$$$$$$$$$$$$$$$$$$$$$$$
FORCE*                 1              26               0          1.0+00*       
*       -8.8388347648+05          0.0+00-8.8388347648+05
FORCE*                 1              27               0          1.0+00*       
*       -8.8388347648+05          0.0+00-8.8388347648+05
FORCE*                 1              30               0          1.0+00*       
*       -8.8388347648+05          0.0+00-8.8388347648+05
FORCE*                 1              31               0          1.0+00*       
*       -8.8388347648+05          0.0+00-8.8388347648+05
FORCE*                 1              98               0          1.0+00*       
*       -8.8388347648+05          0.0+00-8.8388347648+05
FORCE*                 1              99               0          1.0+00*       
*       -8.8388347648+05          0.0+00-8.8388347648+05
FORCE*                 1             102               0          1.0+00*       
*       -8.8388347648+05          0.0+00-8.8388347648+05
FORCE*                 1             103               0          1.0+00*       
*       -8.8388347648+05          0.0+00-8.8388347648+05
$--1---><------2-------><------3-------><------4-------><------5-------><--6--->
$$$$$$$$$$$$$$$$$$$$$$$$$$$$$$$$$$$$ force $$$$$$$$$$$$$$$$$$$$$$$$$$$$$$$$$$$$$
FORCE*                 1              42               0          1.0+00*       
*       -8.8388347648+05          0.0+00 8.8388347648+05
FORCE*                 1              43               0          1.0+00*       
*       -8.8388347648+05          0.0+00 8.8388347648+05
FORCE*                 1              46               0          1.0+00*       
*       -8.8388347648+05          0.0+00 8.8388347648+05
FORCE*                 1              47               0          1.0+00*       
*       -8.8388347648+05          0.0+00 8.8388347648+05
FORCE*                 1             114               0          1.0+00*       
*       -8.8388347648+05          0.0+00 8.8388347648+05
FORCE*                 1             115               0          1.0+00*       
*       -8.8388347648+05          0.0+00 8.8388347648+05
FORCE*                 1             118               0          1.0+00*       
*       -8.8388347648+05          0.0+00 8.8388347648+05
FORCE*                 1             119               0          1.0+00*       
*       -8.8388347648+05          0.0+00 8.8388347648+05
$--1---><------2-------><------3-------><------4-------><------5-------><--6--->
$$$$$$$$$$$$$$$$$$$$$$$$$$$$$$$$$$$$ force $$$$$$$$$$$$$$$$$$$$$$$$$$$$$$$$$$$$$
FORCE*                 1              58               0          1.0+00*       
*        8.8388347648+05          0.0+00 8.8388347648+05
FORCE*                 1              59               0          1.0+00*       
*        8.8388347648+05          0.0+00 8.8388347648+05
FORCE*                 1              62               0          1.0+00*       
*        8.8388347648+05          0.0+00 8.8388347648+05
FORCE*                 1              63               0          1.0+00*       
*        8.8388347648+05          0.0+00 8.8388347648+05
FORCE*                 1             130               0          1.0+00*       
*        8.8388347648+05          0.0+00 8.8388347648+05
FORCE*                 1             131               0          1.0+00*       
*        8.8388347648+05          0.0+00 8.8388347648+05
FORCE*                 1             134               0          1.0+00*       
*        8.8388347648+05          0.0+00 8.8388347648+05
FORCE*                 1             135               0          1.0+00*       
*        8.8388347648+05          0.0+00 8.8388347648+05
$--1---><------2-------><------3-------><------4-------><------5-------><--6--->
ENDDATA
