$ Generated by Mecway 29
$-------------EXECUTIVE CONTROL SECTION-------------
SOL 101
CEND
$---------------CASE CONTROL SECTION----------------
DISPLACEMENT = ALL
STRESS(CORNER) = ALL
$
  ACCELERATION(PRINT,PLOT) = ALL
  DISPLACEMENT(PRINT, PLOT) = ALL
  GPFORCE(PRINT, PLOT) = ALL
  MPCFORCES(PRINT, PLOT) = ALL
  OLOAD(PRINT, PLOT)= ALL
  SPCFORCES(PRINT, PLOT) = ALL
  FORCE(PRINT, PLOT) = ALL
  STRESS(PRINT, PLOT, CORNER)= ALL
  STRAIN(PRINT, PLOT, CORNER)= ALL
$
SPC = 1
LOAD = 1
BEGIN BULK
$-----------------BULK DATA SECTION-----------------
$
  PARAM, POST,-1
$
GRID*                  1               0          0.0+00          0.0+00*       
*                 0.0+00               0
GRID*                  2               0          2.0-01          0.0+00*       
*                 0.0+00               0
GRID*                  3               0          2.0-01          2.0-01*       
*                 0.0+00               0
GRID*                  4               0          0.0+00          2.0-01*       
*                 0.0+00               0
GRID*                  5               0          7.0-01          0.0+00*       
*                 0.0+00               0
GRID*                  6               0          9.0-01          0.0+00*       
*                 0.0+00               0
GRID*                  7               0          9.0-01          2.0-01*       
*                 0.0+00               0
GRID*                  8               0          7.0-01          2.0-01*       
*                 0.0+00               0
GRID*                  9               0          0.0+00          8.0-02*       
*                 0.0+00               0
GRID*                 10               0          2.0-01          1.2-01*       
*                 0.0+00               0
$--1---><------2-------><------3-------><------4-------><------5-------><--6--->
$$$$$$$$$$$$$$$$$$$$$$$$$$$$$$$$$$$ Material $$$$$$$$$$$$$$$$$$$$$$$$$$$$$$$$$$$
MAT1*                  1          2.0+11          1.0+11          0.0+00*       
*                 0.0+00          0.0+00          0.0+00
$--1---><------2-------><------3-------><------4-------><------5-------><--6--->
SPC*                   1               1               1          0.0+00*       
*                                                                       
SPC*                   1               1               2          0.0+00*       
*                                                                       
SPC*                   1               1               3          0.0+00*       
*                                                                       
SPC*                   1               1               4          0.0+00*       
*                                                                       
SPC*                   1               1               5          0.0+00*       
*                                                                       
SPC*                   1               1               6          0.0+00*       
*                                                                       
SPC*                   1               4               1          0.0+00*       
*                                                                       
SPC*                   1               4               2          0.0+00*       
*                                                                       
SPC*                   1               4               3          0.0+00*       
*                                                                       
SPC*                   1               4               4          0.0+00*       
*                                                                       
SPC*                   1               4               5          0.0+00*       
*                                                                       
SPC*                   1               4               6          0.0+00*       
*                                                                       
SPC*                   1               5               1          0.0+00*       
*                                                                       
SPC*                   1               5               2          0.0+00*       
*                                                                       
SPC*                   1               5               3          0.0+00*       
*                                                                       
SPC*                   1               5               4          0.0+00*       
*                                                                       
SPC*                   1               5               5          0.0+00*       
*                                                                       
SPC*                   1               5               6          0.0+00*       
*                                                                       
SPC*                   1               8               1          0.0+00*       
*                                                                       
SPC*                   1               8               2          0.0+00*       
*                                                                       
SPC*                   1               8               3          0.0+00*       
*                                                                       
SPC*                   1               8               4          0.0+00*       
*                                                                       
SPC*                   1               8               5          0.0+00*       
*                                                                       
SPC*                   1               8               6          0.0+00*       
*                                                                       
SPC*                   1               9               1          0.0+00*       
*                                                                       
SPC*                   1               9               2          0.0+00*       
*                                                                       
SPC*                   1               9               3          0.0+00*       
*                                                                       
SPC*                   1               9               4          0.0+00*       
*                                                                       
SPC*                   1               9               5          0.0+00*       
*                                                                       
SPC*                   1               9               6          0.0+00*       
*                                                                       
$--1---><------2-------><------3-------><------4-------><------5-------><--6--->
$$$$$$$$$$$$$$$$$$$$$$$$$$$$$$$$$$$ Default $$$$$$$$$$$$$$$$$$$$$$$$$$$$$$$$$$$$
PSHELL*                1               1          8.0-02               1*       
*                                      1                          0.0+00
CQUAD4*                1               1               9              10*       
*                      3               4 3.3690067526+01          0.0+00
CQUAD4*                4               1               1               2*       
*                     10               9          4.5+01          0.0+00
PSHELL*                2               1          8.0-02               1*       
*                                      1                          0.0+00
CTRIA3*                2               2               5               7*       
*                      8 1.2722218726-14          0.0+00
CTRIA3*                3               2               5               6*       
*                      7          4.5+01          0.0+00
$--1---><------2-------><------3-------><------4-------><------5-------><--6--->
$$$$$$$$$$$$$$$$$$$$$$$$$$$$$$$$$$$$ force $$$$$$$$$$$$$$$$$$$$$$$$$$$$$$$$$$$$$
FORCE*                 1               6               0          1.0+00*       
*                 2.5+03          0.0+00          0.0+00
FORCE*                 1               7               0          1.0+00*       
*                 2.5+03          0.0+00          0.0+00
FORCE*                 1               2               0          1.0+00*       
*                 1.5+03          0.0+00          0.0+00
FORCE*                 1              10               0          1.0+00*       
*                 2.5+03          0.0+00          0.0+00
FORCE*                 1               3               0          1.0+00*       
*                 1.0+03          0.0+00          0.0+00
$--1---><------2-------><------3-------><------4-------><------5-------><--6--->
ENDDATA
