$ Generated by Mecway 29
$-------------EXECUTIVE CONTROL SECTION-------------
SOL 105
CEND
$---------------CASE CONTROL SECTION----------------
DISPLACEMENT = ALL
$
  ACCELERATION(PRINT,PLOT) = ALL
  DISPLACEMENT(PRINT, PLOT) = ALL
  GPFORCE(PRINT, PLOT) = ALL
  MPCFORCES(PRINT, PLOT) = ALL
  OLOAD(PRINT, PLOT)= ALL
  SPCFORCES(PRINT, PLOT) = ALL
  FORCE(PRINT, PLOT) = ALL
  STRESS(PRINT, PLOT, CORNER)= ALL
  STRAIN(PRINT, PLOT, CORNER)= ALL
$
SPC = 1
SUBCASE 1
LOAD = 1
SUBCASE 2
METHOD = 1
BEGIN BULK
$-----------------BULK DATA SECTION-----------------
$
  PARAM, POST,-1
$
GRID*                  1               0          0.0+00          0.0+00*       
*                 0.0+00               0
GRID*                  2               0          1.0+00          0.0+00*       
*                 0.0+00               0
GRID*                  3               0          1.0+00          1.0-01*       
*                 0.0+00               0
GRID*                  4               0          0.0+00          1.0-01*       
*                 0.0+00               0
GRID*                  5               0          1.0-01          0.0+00*       
*                 0.0+00               0
GRID*                  6               0          1.0-01          1.0-01*       
*                 0.0+00               0
GRID*                  7               0          2.0-01          0.0+00*       
*                 0.0+00               0
GRID*                  8               0          2.0-01          1.0-01*       
*                 0.0+00               0
GRID*                  9               0          3.0-01          0.0+00*       
*                 0.0+00               0
GRID*                 10               0          3.0-01          1.0-01*       
*                 0.0+00               0
GRID*                 11               0          4.0-01          0.0+00*       
*                 0.0+00               0
GRID*                 12               0          4.0-01          1.0-01*       
*                 0.0+00               0
GRID*                 13               0          5.0-01          0.0+00*       
*                 0.0+00               0
GRID*                 14               0          5.0-01          1.0-01*       
*                 0.0+00               0
GRID*                 15               0          6.0-01          0.0+00*       
*                 0.0+00               0
GRID*                 16               0          6.0-01          1.0-01*       
*                 0.0+00               0
GRID*                 17               0          7.0-01          0.0+00*       
*                 0.0+00               0
GRID*                 18               0          7.0-01          1.0-01*       
*                 0.0+00               0
GRID*                 19               0          8.0-01          0.0+00*       
*                 0.0+00               0
GRID*                 20               0          8.0-01          1.0-01*       
*                 0.0+00               0
$ ... 86 like lines cut
$--1---><------2-------><------3-------><------4-------><------5-------><--6--->
$$$$$$$$$$$$$$$$$$$$$$$$$$$$$$$$$$$ Material $$$$$$$$$$$$$$$$$$$$$$$$$$$$$$$$$$$
MAT1*                  1          1.0+11 3.8461538462+10          3.0-01*       
*                 0.0+00          0.0+00          0.0+00
$--1---><------2-------><------3-------><------4-------><------5-------><--6--->
SPC*                   1               1               1          0.0+00*       
*                                                                       
SPC*                   1               1               2          0.0+00*       
*                                                                       
SPC*                   1               1               3          0.0+00*       
*                                                                       
SPC*                   1               1               4          0.0+00*       
*                                                                       
SPC*                   1               1               5          0.0+00*       
*                                                                       
SPC*                   1               1               6          0.0+00*       
*                                                                       
SPC*                   1               4               1          0.0+00*       
*                                                                       
SPC*                   1               4               2          0.0+00*       
*                                                                       
SPC*                   1               4               3          0.0+00*       
*                                                                       
SPC*                   1               4               4          0.0+00*       
*                                                                       
SPC*                   1               4               5          0.0+00*       
*                                                                       
SPC*                   1               4               6          0.0+00*       
*                                                                       
SPC*                   1              31               1          0.0+00*       
*                                                                       
SPC*                   1              31               2          0.0+00*       
*                                                                       
SPC*                   1              31               3          0.0+00*       
*                                                                       
SPC*                   1              31               4          0.0+00*       
*                                                                       
SPC*                   1              31               5          0.0+00*       
*                                                                       
SPC*                   1              31               6          0.0+00*       
*                                                                       
$--1---><------2-------><------3-------><------4-------><------5-------><--6--->
$$$$$$$$$$$$$$$$$$$$$$$$$$$$$$$$$$$ Default $$$$$$$$$$$$$$$$$$$$$$$$$$$$$$$$$$$$
PSHELL*                1               1          1.0-03               1*       
*                                      1                          0.0+00
CTRIA3K*               1               1              56              18*       
*                     55          0.0+00          0.0+00
CTRIA3K*               2               1              50              55*       
*                     16          0.0+00          0.0+00
CTRIA3K*               3               1              17              60*       
*                     54          0.0+00          0.0+00
CTRIA3K*               4               1              57              58*       
*                     60          0.0+00          0.0+00
CTRIA3K*               5               1              60              20*       
*                     59          0.0+00          0.0+00
CTRIA3K*               6               1              54              59*       
*                     18          0.0+00          0.0+00
CTRIA3K*               7               1              19              63*       
*                     58          0.0+00          0.0+00
CTRIA3K*               8               1              61              26*       
*                     63          0.0+00          0.0+00
CTRIA3K*               9               1              63              22*       
*                     62          0.0+00          0.0+00
CTRIA3K*              10               1              58              62*       
*                     20          0.0+00          0.0+00
CTRIA3K*              11               1              21              27*       
*                     26          0.0+00          0.0+00
CTRIA3K*              12               1              23              24*       
*                     27          0.0+00          0.0+00
CTRIA3K*              13               1              27               3*       
*                     25          0.0+00          0.0+00
CTRIA3K*              14               1              26              25*       
*                     22          0.0+00          0.0+00
CTRIA3K*              15               1               1              32*       
*                     31          0.0+00          0.0+00
CTRIA3K*              16               1              28              29*       
*                     32          0.0+00          0.0+00
CTRIA3K*              17               1              32               6*       
*                     30          0.0+00          0.0+00
CTRIA3K*              18               1              31              30*       
*                      4          0.0+00          0.0+00
CTRIA3K*              19               1               5              36*       
*                     29          0.0+00          0.0+00
CTRIA3K*              20               1              33              34*       
$ ... 121 like lines cut
$--1---><------2-------><------3-------><------4-------><------5-------><--6--->
$$$$$$$$$$$$$$$$$$$$$$$$$$$$$$$$$$$$ force $$$$$$$$$$$$$$$$$$$$$$$$$$$$$$$$$$$$$
FORCE*                 1              24               0          1.0+00*       
*                 0.0+00          5.0-01          0.0+00
FORCE*                 1               3               0          1.0+00*       
*                 0.0+00          2.5-01          0.0+00
FORCE*                 1               2               0          1.0+00*       
*                 0.0+00          2.5-01          0.0+00
$--1---><------2-------><------3-------><------4-------><------5-------><--6--->
EIGRL*                 1                                               1*       
*                      0                          1.0+00            MASS
ENDDATA
