$ Generated by Mecway 29
$-------------EXECUTIVE CONTROL SECTION-------------
SOL 101
CEND
$---------------CASE CONTROL SECTION----------------
DISPLACEMENT = ALL
$
  ACCELERATION(PRINT,PLOT) = ALL
  DISPLACEMENT(PRINT, PLOT) = ALL
  GPFORCE(PRINT, PLOT) = ALL
  MPCFORCES(PRINT, PLOT) = ALL
  OLOAD(PRINT, PLOT)= ALL
  SPCFORCES(PRINT, PLOT) = ALL
  FORCE(PRINT, PLOT) = ALL
  STRESS(PRINT, PLOT, CORNER)= ALL
  STRAIN(PRINT, PLOT, CORNER)= ALL
$
SPC = 1
LOAD = 1
BEGIN BULK
$-----------------BULK DATA SECTION-----------------
$
  PARAM, POST,-1
$
GRID*                  1               0          0.0+00          0.0+00*       
*                 2.5+00               0
GRID*                  2               0          0.0+00          0.0+00*       
*                 0.0+00               0
GRID*                  3               0          1.8+01          0.0+00*       
*                 2.5+00               0
GRID*                  4               0          1.8+01          0.0+00*       
*                 0.0+00               0
GRID*                  5               0          3.0+00          0.0+00*       
*                 2.5+00               0
GRID*                  6               0          3.0+00          0.0+00*       
*                 0.0+00               0
GRID*                  7               0          1.5+01          0.0+00*       
*                 2.5+00               0
GRID*                  8               0          1.5+01          0.0+00*       
*                 0.0+00               0
GRID*                  9               0          6.0+00          0.0+00*       
*                 2.5+00               0
GRID*                 10               0          6.0+00          0.0+00*       
*                 0.0+00               0
GRID*                 11               0          2.4+01          0.0+00*       
*                 0.0+00               0
GRID*                 12               0          2.1+01          0.0+00*       
*                 2.5+00               0
GRID*                 13               0          9.0+00          0.0+00*       
*                 2.5+00               0
GRID*                 14               0          9.0+00          0.0+00*       
*                 0.0+00               0
GRID*                 15               0          2.4+01          0.0+00*       
*                 2.5+00               0
GRID*                 16               0          2.1+01          0.0+00*       
*                 0.0+00               0
GRID*                 17               0          1.2+01          0.0+00*       
*                 2.5+00               0
GRID*                 18               0          1.2+01          0.0+00*       
*                 0.0+00               0
$--1---><------2-------><------3-------><------4-------><------5-------><--6--->
$$$$$$$$$$$$$$$$$$$$$$$$$$$$$$$$$$$ Material $$$$$$$$$$$$$$$$$$$$$$$$$$$$$$$$$$$
MAT1*                  1          2.0+11          1.0+11          0.0+00*       
*                 0.0+00          0.0+00          0.0+00
$--1---><------2-------><------3-------><------4-------><------5-------><--6--->
$$$$$$$$$$$$$$$$$$$$$$$$$$$$$$$$$ Material(2) $$$$$$$$$$$$$$$$$$$$$$$$$$$$$$$$$$
MAT1*                  2          2.0+11          1.0+11          0.0+00*       
*                 0.0+00          0.0+00          0.0+00
$--1---><------2-------><------3-------><------4-------><------5-------><--6--->
$$$$$$$$$$$$$$$$$$$$$$$$$$$$$$$$$ Material(3) $$$$$$$$$$$$$$$$$$$$$$$$$$$$$$$$$$
MAT1*                  3          2.0+11          1.0+11          0.0+00*       
*                 0.0+00          0.0+00          0.0+00
$--1---><------2-------><------3-------><------4-------><------5-------><--6--->
$$$$$$$$$$$$$$$$$$$$$$$$$$$$$$$$$ Material(4) $$$$$$$$$$$$$$$$$$$$$$$$$$$$$$$$$$
MAT1*                  4          2.0+11          1.0+11          0.0+00*       
*                 0.0+00          0.0+00          0.0+00
$--1---><------2-------><------3-------><------4-------><------5-------><--6--->
$$$$$$$$$$$$$$$$$$$$$$$$$$$$$$$$$ Material(5) $$$$$$$$$$$$$$$$$$$$$$$$$$$$$$$$$$
MAT1*                  5          2.0+11          1.0+11          0.0+00*       
*                 0.0+00          0.0+00          0.0+00
$--1---><------2-------><------3-------><------4-------><------5-------><--6--->
$$$$$$$$$$$$$$$$$$$$$$$$$$$$$$$$$ Material(6) $$$$$$$$$$$$$$$$$$$$$$$$$$$$$$$$$$
MAT1*                  6          2.0+11          1.0+11          0.0+00*       
*                 0.0+00          0.0+00          0.0+00
$--1---><------2-------><------3-------><------4-------><------5-------><--6--->
$$$$$$$$$$$$$$$$$$$$$$$$$$$$$$$$$ Material(7) $$$$$$$$$$$$$$$$$$$$$$$$$$$$$$$$$$
MAT1*                  7          2.0+11          1.0+11          0.0+00*       
*                 0.0+00          0.0+00          0.0+00
$--1---><------2-------><------3-------><------4-------><------5-------><--6--->
$$$$$$$$$$$$$$$$$$$$$$$$$$$$$$$$$ Material(8) $$$$$$$$$$$$$$$$$$$$$$$$$$$$$$$$$$
MAT1*                  8          2.0+11          1.0+11          0.0+00*       
*                 0.0+00          0.0+00          0.0+00
$--1---><------2-------><------3-------><------4-------><------5-------><--6--->
$$$$$$$$$$$$$$$$$$$$$$$$$$$$$$$$$ Material(9) $$$$$$$$$$$$$$$$$$$$$$$$$$$$$$$$$$
MAT1*                  9          2.0+11          1.0+11          0.0+00*       
*                 0.0+00          0.0+00          0.0+00
$--1---><------2-------><------3-------><------4-------><------5-------><--6--->
SPC*                   1               1               1          0.0+00*       
*                                                                       
SPC*                   1               1               2          0.0+00*       
*                                                                       
SPC*                   1               1               3          0.0+00*       
*                                                                       
SPC*                   1               1               4          0.0+00*       
*                                                                       
SPC*                   1               1               5          0.0+00*       
*                                                                       
SPC*                   1               1               6          0.0+00*       
*                                                                       
SPC*                   1               3               1          0.0+00*       
*                                                                       
SPC*                   1               3               2          0.0+00*       
*                                                                       
SPC*                   1               3               3          0.0+00*       
*                                                                       
SPC*                   1               3               4          0.0+00*       
*                                                                       
SPC*                   1               3               5          0.0+00*       
*                                                                       
SPC*                   1               3               6          0.0+00*       
*                                                                       
SPC*                   1               5               1          0.0+00*       
*                                                                       
SPC*                   1               5               2          0.0+00*       
*                                                                       
SPC*                   1               5               3          0.0+00*       
*                                                                       
SPC*                   1               5               4          0.0+00*       
*                                                                       
SPC*                   1               5               5          0.0+00*       
*                                                                       
SPC*                   1               5               6          0.0+00*       
*                                                                       
SPC*                   1               7               1          0.0+00*       
*                                                                       
SPC*                   1               7               2          0.0+00*       
*                                                                       
SPC*                   1               7               3          0.0+00*       
*                                                                       
SPC*                   1               7               4          0.0+00*       
*                                                                       
SPC*                   1               7               5          0.0+00*       
*                                                                       
SPC*                   1               7               6          0.0+00*       
*                                                                       
SPC*                   1               9               1          0.0+00*       
*                                                                       
SPC*                   1               9               2          0.0+00*       
*                                                                       
SPC*                   1               9               3          0.0+00*       
*                                                                       
SPC*                   1               9               4          0.0+00*       
*                                                                       
SPC*                   1               9               5          0.0+00*       
*                                                                       
SPC*                   1               9               6          0.0+00*       
*                                                                       
SPC*                   1              12               1          0.0+00*       
*                                                                       
SPC*                   1              12               2          0.0+00*       
*                                                                       
SPC*                   1              12               3          0.0+00*       
*                                                                       
SPC*                   1              12               4          0.0+00*       
*                                                                       
SPC*                   1              12               5          0.0+00*       
*                                                                       
SPC*                   1              12               6          0.0+00*       
*                                                                       
SPC*                   1              13               1          0.0+00*       
*                                                                       
SPC*                   1              13               2          0.0+00*       
*                                                                       
SPC*                   1              13               3          0.0+00*       
*                                                                       
SPC*                   1              13               4          0.0+00*       
*                                                                       
SPC*                   1              13               5          0.0+00*       
*                                                                       
SPC*                   1              13               6          0.0+00*       
*                                                                       
SPC*                   1              15               1          0.0+00*       
*                                                                       
SPC*                   1              15               2          0.0+00*       
*                                                                       
SPC*                   1              15               3          0.0+00*       
*                                                                       
SPC*                   1              15               4          0.0+00*       
*                                                                       
SPC*                   1              15               5          0.0+00*       
*                                                                       
SPC*                   1              15               6          0.0+00*       
*                                                                       
SPC*                   1              17               1          0.0+00*       
*                                                                       
SPC*                   1              17               2          0.0+00*       
*                                                                       
SPC*                   1              17               3          0.0+00*       
*                                                                       
SPC*                   1              17               4          0.0+00*       
*                                                                       
SPC*                   1              17               5          0.0+00*       
*                                                                       
SPC*                   1              17               6          0.0+00*       
*                                                                       
$--1---><------2-------><------3-------><------4-------><------5-------><--6--->
$$$$$$$$$$$$$$$$$$$$$$$$$$$$$$$$$$ Component $$$$$$$$$$$$$$$$$$$$$$$$$$$$$$$$$$$
PBAR*                  1               1          2.8-03 4.4933333333-06*       
*        2.8304761905-06 8.9671472737-08          0.0+00
CBAR*                  3               1               2               1*       
*                 0.0+00          1.0+00          0.0+00
$--1---><------2-------><------3-------><------4-------><------5-------><--6--->
$$$$$$$$$$$$$$$$$$$$$$$$$$$$$$$$$ Component(1) $$$$$$$$$$$$$$$$$$$$$$$$$$$$$$$$$
PBAR*                  2               2          2.0-03 2.3541666667-06*       
*        8.4166666667-07 6.7178794089-08          0.0+00
CBAR*                  6               2               6               5*       
*                 0.0+00          1.0+00          0.0+00
$--1---><------2-------><------3-------><------4-------><------5-------><--6--->
$$$$$$$$$$$$$$$$$$$$$$$$$$$$$$$$$ Component(2) $$$$$$$$$$$$$$$$$$$$$$$$$$$$$$$$$
PBAR*                  3               3          2.9-03 1.3073525417-05*       
*        1.3782561923-06 9.4835473077-08          0.0+00
CBAR*                  9               3              10               9*       
*                 0.0+00          1.0+00          0.0+00
$--1---><------2-------><------3-------><------4-------><------5-------><--6--->
$$$$$$$$$$$$$$$$$$$$$$$$$$$$$$$$$ Component(3) $$$$$$$$$$$$$$$$$$$$$$$$$$$$$$$$$
PBAR*                  4               4          3.8-03 2.2926666667-05*       
*        1.6816666667-06 1.2979092042-07          0.0+00
CBAR*                  5               4              14              13*       
*                 0.0+00          1.0+00          0.0+00
$--1---><------2-------><------3-------><------4-------><------5-------><--6--->
$$$$$$$$$$$$$$$$$$$$$$$$$$$$$$$$$ Component(4) $$$$$$$$$$$$$$$$$$$$$$$$$$$$$$$$$
PBAR*                  5               5          3.0-02        5.625-05*       
*                 1.0-04 1.2149066162-04          0.0+00
CBAR*                  8               5              18              17*       
*                 0.0+00          1.0+00          0.0+00
$--1---><------2-------><------3-------><------4-------><------5-------><--6--->
$$$$$$$$$$$$$$$$$$$$$$$$$$$$$$$$$ Component(5) $$$$$$$$$$$$$$$$$$$$$$$$$$$$$$$$$
PBAR*                  6               6          9.6-03       1.2072-04*       
*               6.392-05 1.2650041667-04          0.0+00
CBAR*                  4               6               8               7*       
*                 0.0+00          1.0+00          0.0+00
$--1---><------2-------><------3-------><------4-------><------5-------><--6--->
$$$$$$$$$$$$$$$$$$$$$$$$$$$$$$$$$ Component(6) $$$$$$$$$$$$$$$$$$$$$$$$$$$$$$$$$
PBAR*                  7               7 3.1415926536-02  7.853981634-05*       
*         7.853981634-05 1.5707963268-04          0.0+00
CBAR*                  7               7               4               3*       
*                 0.0+00          1.0+00          0.0+00
$--1---><------2-------><------3-------><------4-------><------5-------><--6--->
$$$$$$$$$$$$$$$$$$$$$$$$$$$$$$$$$ Component(7) $$$$$$$$$$$$$$$$$$$$$$$$$$$$$$$$$
PBAR*                  8               8 4.7123889804-03 2.0027653167-06*       
*        2.0027653167-06 4.0055306333-06          0.0+00
CBAR*                  1               8              16              12*       
*                 0.0+00          1.0+00          0.0+00
$--1---><------2-------><------3-------><------4-------><------5-------><--6--->
$$$$$$$$$$$$$$$$$$$$$$$$$$$$$$$$$ Component(8) $$$$$$$$$$$$$$$$$$$$$$$$$$$$$$$$$
PBAR*                  9               9          3.0-02          1.0-04*       
*               5.625-05 1.2149066162-04          0.0+00
CBAR*                  2               9              11              15*       
*                 0.0+00          1.0+00          0.0+00
$--1---><------2-------><------3-------><------4-------><------5-------><--6--->
$$$$$$$$$$$$$$$$$$$$$$$$$$$$$$$$$$$$ force $$$$$$$$$$$$$$$$$$$$$$$$$$$$$$$$$$$$$
FORCE*                 1               2               0          1.0+00*       
*                 0.0+00          0.0+00 6.2222222222+00
FORCE*                 1               6               0          1.0+00*       
*                 0.0+00          0.0+00 6.2222222222+00
FORCE*                 1              10               0          1.0+00*       
*                 0.0+00          0.0+00 6.2222222222+00
FORCE*                 1              14               0          1.0+00*       
*                 0.0+00          0.0+00 6.2222222222+00
FORCE*                 1              18               0          1.0+00*       
*                 0.0+00          0.0+00 6.2222222222+00
FORCE*                 1               8               0          1.0+00*       
*                 0.0+00          0.0+00 6.2222222222+00
FORCE*                 1               4               0          1.0+00*       
*                 0.0+00          0.0+00 6.2222222222+00
FORCE*                 1              16               0          1.0+00*       
*                 0.0+00          0.0+00 6.2222222222+00
FORCE*                 1              11               0          1.0+00*       
*                 0.0+00          0.0+00 6.2222222222+00
$--1---><------2-------><------3-------><------4-------><------5-------><--6--->
$$$$$$$$$$$$$$$$$$$$$$$$$$$$$$$$$$$$ moment $$$$$$$$$$$$$$$$$$$$$$$$$$$$$$$$$$$$
MOMENT*                1               2               0          1.0+00*       
*                 2.0+00          3.0+00          1.0+00
$--1---><------2-------><------3-------><------4-------><------5-------><--6--->
$$$$$$$$$$$$$$$$$$$$$$$$$$$$$$$$$$$$ moment $$$$$$$$$$$$$$$$$$$$$$$$$$$$$$$$$$$$
MOMENT*                1               6               0          1.0+00*       
*                 2.0+00          3.0+00          1.0+00
$--1---><------2-------><------3-------><------4-------><------5-------><--6--->
$$$$$$$$$$$$$$$$$$$$$$$$$$$$$$$$$$$$ moment $$$$$$$$$$$$$$$$$$$$$$$$$$$$$$$$$$$$
MOMENT*                1              10               0          1.0+00*       
*                 2.0+00          3.0+00          1.0+00
$--1---><------2-------><------3-------><------4-------><------5-------><--6--->
$$$$$$$$$$$$$$$$$$$$$$$$$$$$$$$$$$$$ moment $$$$$$$$$$$$$$$$$$$$$$$$$$$$$$$$$$$$
MOMENT*                1              14               0          1.0+00*       
*                 2.0+00          3.0+00          1.0+00
$--1---><------2-------><------3-------><------4-------><------5-------><--6--->
$$$$$$$$$$$$$$$$$$$$$$$$$$$$$$$$$$$$ moment $$$$$$$$$$$$$$$$$$$$$$$$$$$$$$$$$$$$
MOMENT*                1              18               0          1.0+00*       
*                 2.0+00          3.0+00          1.0+00
$--1---><------2-------><------3-------><------4-------><------5-------><--6--->
$$$$$$$$$$$$$$$$$$$$$$$$$$$$$$$$$$$$ moment $$$$$$$$$$$$$$$$$$$$$$$$$$$$$$$$$$$$
MOMENT*                1               8               0          1.0+00*       
*                 2.0+00          3.0+00          1.0+00
$--1---><------2-------><------3-------><------4-------><------5-------><--6--->
$$$$$$$$$$$$$$$$$$$$$$$$$$$$$$$$$$$$ moment $$$$$$$$$$$$$$$$$$$$$$$$$$$$$$$$$$$$
MOMENT*                1               4               0          1.0+00*       
*                 2.0+00          3.0+00          1.0+00
$--1---><------2-------><------3-------><------4-------><------5-------><--6--->
$$$$$$$$$$$$$$$$$$$$$$$$$$$$$$$$$$$$ moment $$$$$$$$$$$$$$$$$$$$$$$$$$$$$$$$$$$$
MOMENT*                1              16               0          1.0+00*       
*                 2.0+00          3.0+00          1.0+00
$--1---><------2-------><------3-------><------4-------><------5-------><--6--->
$$$$$$$$$$$$$$$$$$$$$$$$$$$$$$$$$$$$ moment $$$$$$$$$$$$$$$$$$$$$$$$$$$$$$$$$$$$
MOMENT*                1              11               0          1.0+00*       
*                 2.0+00          3.0+00          1.0+00
$--1---><------2-------><------3-------><------4-------><------5-------><--6--->
ENDDATA
