$ Generated by Mecway 29
$-------------EXECUTIVE CONTROL SECTION-------------
SOL 105
CEND
$---------------CASE CONTROL SECTION----------------
DISPLACEMENT = ALL
$
  ACCELERATION(PRINT,PLOT) = ALL
  DISPLACEMENT(PRINT, PLOT) = ALL
  GPFORCE(PRINT, PLOT) = ALL
  MPCFORCES(PRINT, PLOT) = ALL
  OLOAD(PRINT, PLOT)= ALL
  SPCFORCES(PRINT, PLOT) = ALL
  FORCE(PRINT, PLOT) = ALL
  STRESS(PRINT, PLOT, CORNER)= ALL
  STRAIN(PRINT, PLOT, CORNER)= ALL
$
SPC = 1
SUBCASE 1
TEMPERATURE = 1
SUBCASE 2
METHOD = 1
BEGIN BULK
$-----------------BULK DATA SECTION-----------------
$
  PARAM, POST,-1
$
GRID*                  1               0          0.0+00          0.0+00*       
*                 0.0+00               0
GRID*                  2               0-2.5651510749-02 7.0476946559-02*       
*                 0.0+00               0
GRID*                  3               0-3.4202014333-02 9.3969262079-02*       
*                 0.0+00               0
GRID*                  4               0-6.8404028665-02 1.8793852416-01*       
*                 0.0+00               0
GRID*                  5               0-2.1591952298-03 7.9027450142-02*       
*                 0.0+00               0
GRID*                  6               0-8.5505035831-03  2.349231552-02*       
*                 0.0+00               0
GRID*                  7               0-5.1303021499-02 1.4095389312-01*       
*                 0.0+00               0
GRID*                  8               0-4.2752517916-02  1.174615776-01*       
*                 0.0+00               0
GRID*                  9               0-1.7101007166-02 4.6984631039-02*       
*                 0.0+00               0
GRID*                 10               0-1.9260202396-02 1.2601208118-01*       
*                 0.0+00               0
GRID*                 11               0-2.7810705979-02  1.495043967-01*       
*                 0.0+00               0
GRID*                 12               0  2.349231552-02 8.5505035831-03*       
*                 0.0+00               0
GRID*                 13               0-4.4911713145-02 1.9648902774-01*       
*                 0.0+00               0
GRID*                 14               0-5.9853525082-02 1.6444620864-01*       
*                 0.0+00               0
GRID*                 15               0-3.6361209562-02 1.7299671222-01*       
*                 0.0+00               0
GRID*                 16               0 6.3913083534-03 5.5535134622-02*       
*                 0.0+00               0
GRID*                 17               0 1.4941811937-02 3.2042819103-02*       
*                 0.0+00               0
GRID*                 18               0-1.0709698813-02 1.0251976566-01*       
*                 0.0+00               0
GRID*                 19               0 4.6984631039-02-1.7101007166-02*       
*                 0.0+00               0
GRID*                 20               0 4.6984631039-02 5.7898992834-02*       
*                 0.0+00               0
$ ... 68 like lines cut
$--1---><------2-------><------3-------><------4-------><------5-------><--6--->
$$$$$$$$$$$$$$$$$$$$$$$$$$$$$$$$$$$ Material $$$$$$$$$$$$$$$$$$$$$$$$$$$$$$$$$$$
MAT1*                  1          5.0+10          2.5+10          0.0+00*       
*                 0.0+00          6.0-04          3.0+02
$--1---><------2-------><------3-------><------4-------><------5-------><--6--->
SPC*                   1               1               1          0.0+00*       
*                                                                       
SPC*                   1               1               2          0.0+00*       
*                                                                       
SPC*                   1               1               3          0.0+00*       
*                                                                       
SPC*                   1               4               1          0.0+00*       
*                                                                       
SPC*                   1               4               2          0.0+00*       
*                                                                       
SPC*                   1               4               4          0.0+00*       
*                                                                       
SPC*                   1               4               5          0.0+00*       
*                                                                       
SPC*                   1              12               1          0.0+00*       
*                                                                       
SPC*                   1              12               2          0.0+00*       
*                                                                       
SPC*                   1              12               3          0.0+00*       
*                                                                       
SPC*                   1              13               2          0.0+00*       
*                                                                       
SPC*                   1              13               1          0.0+00*       
*                                                                       
SPC*                   1              13               4          0.0+00*       
*                                                                       
SPC*                   1              13               5          0.0+00*       
*                                                                       
SPC*                   1              19               1          0.0+00*       
*                                                                       
SPC*                   1              19               2          0.0+00*       
*                                                                       
SPC*                   1              19               3          0.0+00*       
*                                                                       
SPC*                   1              22               1          0.0+00*       
*                                                                       
SPC*                   1              22               2          0.0+00*       
*                                                                       
SPC*                   1              22               4          0.0+00*       
*                                                                       
SPC*                   1              22               5          0.0+00*       
*                                                                       
SPC*                   1              30               1          0.0+00*       
*                                                                       
SPC*                   1              30               2          0.0+00*       
*                                                                       
SPC*                   1              30               3          0.0+00*       
*                                                                       
SPC*                   1              31               2          0.0+00*       
*                                                                       
SPC*                   1              31               1          0.0+00*       
*                                                                       
SPC*                   1              31               4          0.0+00*       
*                                                                       
SPC*                   1              31               5          0.0+00*       
*                                                                       
SPC*                   1              37               1          0.0+00*       
*                                                                       
SPC*                   1              37               2          0.0+00*       
*                                                                       
SPC*                   1              37               3          0.0+00*       
*                                                                       
SPC*                   1              40               2          0.0+00*       
*                                                                       
SPC*                   1              40               1          0.0+00*       
*                                                                       
SPC*                   1              40               4          0.0+00*       
*                                                                       
SPC*                   1              40               5          0.0+00*       
*                                                                       
SPC*                   1              48               1          0.0+00*       
*                                                                       
SPC*                   1              48               2          0.0+00*       
*                                                                       
SPC*                   1              48               3          0.0+00*       
*                                                                       
SPC*                   1              49               2          0.0+00*       
*                                                                       
SPC*                   1              49               1          0.0+00*       
*                                                                       
SPC*                   1              49               4          0.0+00*       
*                                                                       
SPC*                   1              49               5          0.0+00*       
*                                                                       
$--1---><------2-------><------3-------><------4-------><------5-------><--6--->
$$$$$$$$$$$$$$$$$$$$$$$$$$$$$$$$$$$ Default $$$$$$$$$$$$$$$$$$$$$$$$$$$$$$$$$$$$
PSHELL*                1               1          1.0-03               1*       
*                                      1                          0.0+00
CTRIA3*                1               1              12               6*       
*                      1          0.0+00          0.0+00
CTRIA3*                2               1              16               2*       
*                      9          0.0+00          0.0+00
CTRIA3*                3               1               3              10*       
*                      8          0.0+00          0.0+00
CTRIA3*                4               1              17               9*       
*                      6          0.0+00          0.0+00
CTRIA3*                5               1               7              15*       
*                     14          0.0+00          0.0+00
CTRIA3*                6               1               8              11*       
*                      7          0.0+00          0.0+00
CTRIA3*                7               1               5               3*       
*                      2          0.0+00          0.0+00
CTRIA3*                8               1              14              13*       
*                      4          0.0+00          0.0+00
CTRIA3*                9               1              30              24*       
*                     19          0.0+00          0.0+00
CTRIA3*               10               1              34              20*       
*                     27          0.0+00          0.0+00
CTRIA3*               11               1              21              28*       
*                     26          0.0+00          0.0+00
CTRIA3*               12               1              35              27*       
*                     24          0.0+00          0.0+00
CTRIA3*               13               1              25              33*       
*                     32          0.0+00          0.0+00
CTRIA3*               14               1              26              29*       
*                     25          0.0+00          0.0+00
CTRIA3*               15               1              23              21*       
*                     20          0.0+00          0.0+00
CTRIA3*               16               1              32              31*       
*                     22          0.0+00          0.0+00
CTRIA3*               17               1              53              37*       
*                     42          0.0+00          0.0+00
CTRIA3*               18               1              41              45*       
*                     38          0.0+00          0.0+00
CTRIA3*               19               1              39              46*       
*                     44          0.0+00          0.0+00
CTRIA3*               20               1              52              42*       
$ ... 57 like lines cut
$--1---><------2-------><------3-------><------4-------><------5-------><--6--->
$$$$$$$$$$$$$$$$$$$$$$$$$$$$$$$$$ temperature $$$$$$$$$$$$$$$$$$$$$$$$$$$$$$$$$$
TEMP*                  1               8          4.0+02                *       
*                                                                       
TEMP*                  1              10          4.0+02                *       
*                                                                       
TEMP*                  1              11          4.0+02                *       
*                                                                       
TEMP*                  1              30          4.0+02                *       
*                                                                       
TEMP*                  1              35          4.0+02                *       
*                                                                       
TEMP*                  1              24          4.0+02                *       
*                                                                       
TEMP*                  1              14          4.0+02                *       
*                                                                       
TEMP*                  1              15          4.0+02                *       
*                                                                       
TEMP*                  1              13          4.0+02                *       
*                                                                       
TEMP*                  1              16          4.0+02                *       
*                                                                       
TEMP*                  1               5          4.0+02                *       
*                                                                       
TEMP*                  1               2          4.0+02                *       
*                                                                       
TEMP*                  1              17          4.0+02                *       
*                                                                       
TEMP*                  1              16          4.0+02                *       
*                                                                       
TEMP*                  1               9          4.0+02                *       
*                                                                       
TEMP*                  1               5          4.0+02                *       
*                                                                       
TEMP*                  1              18          4.0+02                *       
*                                                                       
TEMP*                  1               3          4.0+02                *       
*                                                                       
TEMP*                  1               7          4.0+02                *       
*                                                                       
TEMP*                  1              11          4.0+02                *       
*                                                                       
TEMP*                  1              15          4.0+02                *       
*                                                                       
TEMP*                  1               3          4.0+02                *       
*                                                                       
TEMP*                  1              18          4.0+02                *       
*                                                                       
TEMP*                  1              10          4.0+02                *       
*                                                                       
TEMP*                  1              34          4.0+02                *       
*                                                                       
TEMP*                  1              23          4.0+02                *       
*                                                                       
TEMP*                  1              20          4.0+02                *       
*                                                                       
TEMP*                  1              21          4.0+02                *       
*                                                                       
TEMP*                  1              36          4.0+02                *       
*                                                                       
TEMP*                  1              28          4.0+02                *       
*                                                                       
TEMP*                  1              35          4.0+02                *       
*                                                                       
TEMP*                  1              34          4.0+02                *       
*                                                                       
TEMP*                  1              27          4.0+02                *       
*                                                                       
TEMP*                  1              25          4.0+02                *       
*                                                                       
TEMP*                  1              29          4.0+02                *       
*                                                                       
TEMP*                  1              33          4.0+02                *       
*                                                                       
TEMP*                  1              26          4.0+02                *       
*                                                                       
TEMP*                  1              28          4.0+02                *       
*                                                                       
TEMP*                  1              29          4.0+02                *       
*                                                                       
TEMP*                  1              23          4.0+02                *       
*                                                                       
TEMP*                  1              36          4.0+02                *       
*                                                                       
TEMP*                  1              21          4.0+02                *       
*                                                                       
TEMP*                  1              32          4.0+02                *       
*                                                                       
TEMP*                  1              33          4.0+02                *       
*                                                                       
TEMP*                  1              31          4.0+02                *       
*                                                                       
TEMP*                  1              53          4.0+02                *       
*                                                                       
TEMP*                  1              48          4.0+02                *       
*                                                                       
TEMP*                  1              37          4.0+02                *       
*                                                                       
TEMP*                  1              43          4.0+02                *       
*                                                                       
TEMP*                  1              47          4.0+02                *       
*                                                                       
TEMP*                  1              51          4.0+02                *       
*                                                                       
TEMP*                  1              52          4.0+02                *       
*                                                                       
TEMP*                  1              53          4.0+02                *       
*                                                                       
TEMP*                  1              42          4.0+02                *       
*                                                                       
TEMP*                  1              41          4.0+02                *       
*                                                                       
TEMP*                  1              52          4.0+02                *       
*                                                                       
TEMP*                  1              45          4.0+02                *       
*                                                                       
TEMP*                  1              44          4.0+02                *       
*                                                                       
TEMP*                  1              46          4.0+02                *       
*                                                                       
TEMP*                  1              47          4.0+02                *       
*                                                                       
TEMP*                  1              54          4.0+02                *       
*                                                                       
TEMP*                  1              41          4.0+02                *       
*                                                                       
TEMP*                  1              38          4.0+02                *       
*                                                                       
TEMP*                  1              39          4.0+02                *       
*                                                                       
TEMP*                  1              54          4.0+02                *       
*                                                                       
TEMP*                  1              46          4.0+02                *       
*                                                                       
TEMP*                  1              50          4.0+02                *       
*                                                                       
TEMP*                  1              51          4.0+02                *       
*                                                                       
TEMP*                  1              49          4.0+02                *       
*                                                                       
TEMP*                  1              12          4.0+02                *       
*                                                                       
TEMP*                  1              17          4.0+02                *       
*                                                                       
TEMP*                  1               6          4.0+02                *       
*                                                                       
TEMP*                  1              12          4.0+02                *       
*                                                                       
TEMP*                  1               6          4.0+02                *       
*                                                                       
TEMP*                  1               1          4.0+02                *       
*                                                                       
TEMP*                  1              16          4.0+02                *       
*                                                                       
TEMP*                  1               2          4.0+02                *       
*                                                                       
TEMP*                  1               9          4.0+02                *       
*                                                                       
TEMP*                  1               3          4.0+02                *       
*                                                                       
TEMP*                  1              10          4.0+02                *       
*                                                                       
TEMP*                  1               8          4.0+02                *       
*                                                                       
TEMP*                  1              17          4.0+02                *       
*                                                                       
TEMP*                  1               9          4.0+02                *       
*                                                                       
TEMP*                  1               6          4.0+02                *       
*                                                                       
TEMP*                  1               7          4.0+02                *       
*                                                                       
TEMP*                  1              15          4.0+02                *       
*                                                                       
TEMP*                  1              14          4.0+02                *       
*                                                                       
TEMP*                  1               8          4.0+02                *       
*                                                                       
TEMP*                  1              11          4.0+02                *       
*                                                                       
TEMP*                  1               7          4.0+02                *       
*                                                                       
TEMP*                  1               5          4.0+02                *       
*                                                                       
TEMP*                  1               3          4.0+02                *       
*                                                                       
TEMP*                  1               2          4.0+02                *       
*                                                                       
TEMP*                  1              14          4.0+02                *       
*                                                                       
TEMP*                  1              13          4.0+02                *       
*                                                                       
TEMP*                  1               4          4.0+02                *       
*                                                                       
TEMP*                  1              30          4.0+02                *       
*                                                                       
TEMP*                  1              24          4.0+02                *       
*                                                                       
TEMP*                  1              19          4.0+02                *       
*                                                                       
TEMP*                  1              34          4.0+02                *       
*                                                                       
TEMP*                  1              20          4.0+02                *       
*                                                                       
TEMP*                  1              27          4.0+02                *       
*                                                                       
TEMP*                  1              21          4.0+02                *       
*                                                                       
TEMP*                  1              28          4.0+02                *       
*                                                                       
TEMP*                  1              26          4.0+02                *       
*                                                                       
TEMP*                  1              35          4.0+02                *       
*                                                                       
TEMP*                  1              27          4.0+02                *       
*                                                                       
TEMP*                  1              24          4.0+02                *       
*                                                                       
TEMP*                  1              25          4.0+02                *       
*                                                                       
TEMP*                  1              33          4.0+02                *       
*                                                                       
TEMP*                  1              32          4.0+02                *       
*                                                                       
TEMP*                  1              26          4.0+02                *       
*                                                                       
TEMP*                  1              29          4.0+02                *       
*                                                                       
TEMP*                  1              25          4.0+02                *       
*                                                                       
TEMP*                  1              23          4.0+02                *       
*                                                                       
TEMP*                  1              21          4.0+02                *       
*                                                                       
TEMP*                  1              20          4.0+02                *       
*                                                                       
TEMP*                  1              32          4.0+02                *       
*                                                                       
TEMP*                  1              31          4.0+02                *       
*                                                                       
TEMP*                  1              22          4.0+02                *       
*                                                                       
TEMP*                  1              53          4.0+02                *       
*                                                                       
TEMP*                  1              37          4.0+02                *       
*                                                                       
TEMP*                  1              42          4.0+02                *       
*                                                                       
TEMP*                  1              41          4.0+02                *       
*                                                                       
TEMP*                  1              45          4.0+02                *       
*                                                                       
TEMP*                  1              38          4.0+02                *       
*                                                                       
TEMP*                  1              39          4.0+02                *       
*                                                                       
TEMP*                  1              46          4.0+02                *       
*                                                                       
TEMP*                  1              44          4.0+02                *       
*                                                                       
TEMP*                  1              52          4.0+02                *       
*                                                                       
TEMP*                  1              42          4.0+02                *       
*                                                                       
TEMP*                  1              45          4.0+02                *       
*                                                                       
TEMP*                  1              43          4.0+02                *       
*                                                                       
TEMP*                  1              51          4.0+02                *       
*                                                                       
TEMP*                  1              50          4.0+02                *       
*                                                                       
TEMP*                  1              44          4.0+02                *       
*                                                                       
TEMP*                  1              47          4.0+02                *       
*                                                                       
TEMP*                  1              43          4.0+02                *       
*                                                                       
TEMP*                  1              54          4.0+02                *       
*                                                                       
TEMP*                  1              38          4.0+02                *       
*                                                                       
TEMP*                  1              39          4.0+02                *       
*                                                                       
TEMP*                  1              50          4.0+02                *       
*                                                                       
TEMP*                  1              49          4.0+02                *       
*                                                                       
TEMP*                  1              40          4.0+02                *       
*                                                                       
$--1---><------2-------><------3-------><------4-------><------5-------><--6--->
TEMPD*                 1          3.0+02                                *       
*                                                                       
$--1---><------2-------><------3-------><------4-------><------5-------><--6--->
EIGRL*                 1                                               3*       
*                      0                          1.0-05            MASS
ENDDATA
