$ Generated by Mecway 29
$-------------EXECUTIVE CONTROL SECTION-------------
SOL 105
CEND
$---------------CASE CONTROL SECTION----------------
DISPLACEMENT = ALL
$
  ACCELERATION(PRINT,PLOT) = ALL
  DISPLACEMENT(PRINT, PLOT) = ALL
  GPFORCE(PRINT, PLOT) = ALL
  MPCFORCES(PRINT, PLOT) = ALL
  OLOAD(PRINT, PLOT)= ALL
  SPCFORCES(PRINT, PLOT) = ALL
  FORCE(PRINT, PLOT) = ALL
  STRESS(PRINT, PLOT, CORNER)= ALL
  STRAIN(PRINT, PLOT, CORNER)= ALL
$
SPC = 1
SUBCASE 1
LOAD = 1
SUBCASE 2
METHOD = 1
BEGIN BULK
$-----------------BULK DATA SECTION-----------------
$
  PARAM, POST,-1
$
GRID*                  1               0 1.4644660941-02          0.0+00*       
*        3.5355339059-02               0
GRID*                  2               0          5.0-02          0.0+00*       
*                 0.0+00               0
GRID*                  3               0          5.0-02          1.0+00*       
*                 0.0+00               0
GRID*                  4               0 1.4644660941-02          1.0+00*       
*        3.5355339059-02               0
GRID*                  5               0 1.4644660941-02          7.6-01*       
*        3.5355339059-02               0
GRID*                  6               0          5.0-02          7.4-01*       
*                 0.0+00               0
GRID*                  7               0 1.4644660941-02          8.6-01*       
*        3.5355339059-02               0
GRID*                  8               0          5.0-02          5.4-01*       
*                 0.0+00               0
GRID*                  9               0 1.4644660941-02          6.0-02*       
*        3.5355339059-02               0
GRID*                 10               0          5.0-02          1.4-01*       
*                 0.0+00               0
GRID*                 11               0 1.4644660941-02          1.6-01*       
*        3.5355339059-02               0
GRID*                 12               0          5.0-02          9.4-01*       
*                 0.0+00               0
GRID*                 13               0 1.4644660941-02          2.6-01*       
*        3.5355339059-02               0
GRID*                 14               0          5.0-02          2.4-01*       
*                 0.0+00               0
GRID*                 15               0 1.4644660941-02          3.6-01*       
*        3.5355339059-02               0
GRID*                 16               0          5.0-02          6.4-01*       
*                 0.0+00               0
GRID*                 17               0 1.4644660941-02          4.6-01*       
*        3.5355339059-02               0
GRID*                 18               0          5.0-02          3.4-01*       
*                 0.0+00               0
GRID*                 19               0 1.4644660941-02          5.6-01*       
*        3.5355339059-02               0
GRID*                 20               0          5.0-02          8.4-01*       
*                 0.0+00               0
GRID*                 21               0 1.4644660941-02          6.6-01*       
*        3.5355339059-02               0
GRID*                 22               0          5.0-02          4.4-01*       
*                 0.0+00               0
$--1---><------2-------><------3-------><------4-------><------5-------><--6--->
$$$$$$$$$$$$$$$$$$$$$$$$$$$$$$$$$$$ Material $$$$$$$$$$$$$$$$$$$$$$$$$$$$$$$$$$$
MAT1*                  1          2.1+11 7.7777777778+10          3.5-01*       
*                 0.0+00          0.0+00          0.0+00
$--1---><------2-------><------3-------><------4-------><------5-------><--6--->
SPC*                   1               1               1          0.0+00*       
*                                                                       
SPC*                   1               1               2          0.0+00*       
*                                                                       
SPC*                   1               1               3          0.0+00*       
*                                                                       
SPC*                   1               1               4          0.0+00*       
*                                                                       
SPC*                   1               1               5          0.0+00*       
*                                                                       
SPC*                   1               1               6          0.0+00*       
*                                                                       
SPC*                   1               2               1          0.0+00*       
*                                                                       
SPC*                   1               2               2          0.0+00*       
*                                                                       
SPC*                   1               2               3          0.0+00*       
*                                                                       
SPC*                   1               2               4          0.0+00*       
*                                                                       
SPC*                   1               2               5          0.0+00*       
*                                                                       
SPC*                   1               2               6          0.0+00*       
*                                                                       
$--1---><------2-------><------3-------><------4-------><------5-------><--6--->
$$$$$$$$$$$$$$$$$$$$$$$$$$$$$$$$$$$ Default $$$$$$$$$$$$$$$$$$$$$$$$$$$$$$$$$$$$
PSHELL*                1               1          5.0-02               1*       
*                                      1                          0.0+00
CTRIA3K*               1               1               4              12*       
*                      3 6.7469753496-15          0.0+00
CTRIA3K*               2               1               9               2*       
*                     10 2.2489917832-15          0.0+00
CTRIA3K*               3               1              11              10*       
*                     14          0.0+00          0.0+00
CTRIA3K*               4               1              13              14*       
*                     18 2.2489917832-15          0.0+00
CTRIA3K*               5               1              15              18*       
*                     22-3.3734876748-15          0.0+00
CTRIA3K*               6               1              17              22*       
*                      8 2.2489917832-15          0.0+00
CTRIA3K*               7               1              19               8*       
*                     16 2.2489917832-15          0.0+00
CTRIA3K*               8               1              21              16*       
*                      6 2.2489917832-15          0.0+00
CTRIA3K*               9               1               5               6*       
*                     20 2.2489917832-15          0.0+00
CTRIA3K*              10               1               7              20*       
*                     12 2.2489917832-15          0.0+00
CTRIA3K*              11               1               4               7*       
*                     12          0.0+00          0.0+00
CTRIA3K*              12               1               9               1*       
*                      2          0.0+00          0.0+00
CTRIA3K*              13               1              11               9*       
*                     10          0.0+00          0.0+00
CTRIA3K*              14               1              13              11*       
*                     14          0.0+00          0.0+00
CTRIA3K*              15               1              15              13*       
*                     18          0.0+00          0.0+00
CTRIA3K*              16               1              17              15*       
*                     22          0.0+00          0.0+00
CTRIA3K*              17               1              19              17*       
*                      8          0.0+00          0.0+00
CTRIA3K*              18               1              21              19*       
*                     16          0.0+00          0.0+00
CTRIA3K*              19               1               5              21*       
*                      6          0.0+00          0.0+00
CTRIA3K*              20               1               7               5*       
*                     20          0.0+00          0.0+00
$--1---><------2-------><------3-------><------4-------><------5-------><--6--->
$$$$$$$$$$$$$$$$$$$$$$$$$$$$$$$$$$$$ force $$$$$$$$$$$$$$$$$$$$$$$$$$$$$$$$$$$$$
FORCE*                 1               4               0          1.0+00*       
*                 0.0+00         -5.0+03          0.0+00
FORCE*                 1               3               0          1.0+00*       
*                 0.0+00         -5.0+03          0.0+00
$--1---><------2-------><------3-------><------4-------><------5-------><--6--->
EIGRL*                 1                                               3*       
*                      0                          1.0+01            MASS
ENDDATA
