$ Generated by Mecway 33
$-----------------------EXECUTIVE CONTROL SECTION-----------------------
SOL 101
CEND
$-------------------------CASE CONTROL SECTION--------------------------
DISPLACEMENT = ALL
SPC = 1
LOAD = 1
BEGIN BULK
$---------------------------BULK DATA SECTION---------------------------
GRID           1       0   0.0+0   0.0+0   0.0+0       0
GRID           2       0   1.0+0   0.0+0   0.0+0       0
GRID           3       0   1.0+0   1.0+0   0.0+0       0
GRID           4       0   0.0+0   1.0+0   0.0+0       0
GRID           5       0   0.0+0   4.0+0   0.0+0       0
GRID           6       0   1.0+0   4.0+0   0.0+0       0
GRID           7       0   1.0+0   5.0+0   0.0+0       0
GRID           8       0   0.0+0   5.0+0   0.0+0       0
GRID           9       0   4.0+0   0.0+0   0.0+0       0
GRID          10       0   6.0+0   0.0+0   0.0+0       0
GRID          11       0   6.0+0   2.0+0   0.0+0       0
GRID          12       0   4.0+0   2.0+0   0.0+0       0
GRID          13       0   0.0+0   2.0+0   0.0+0       0
GRID          14       0   1.0+0   2.0+0   0.0+0       0
GRID          15       0   1.0+0   3.0+0   0.0+0       0
GRID          16       0   0.0+0   3.0+0   0.0+0       0
GRID          17       0   5.0-1   2.0+0   0.0+0       0
GRID          18       0   1.0+0   2.5+0   0.0+0       0
GRID          19       0   5.0-1   3.0+0   0.0+0       0
GRID          20       0   0.0+0   2.5+0   0.0+0       0
GRID          21       0   0.0+0   8.0+0   0.0+0       0
GRID*                 22               0 7.07106781187-1           8.0+0*
*       -7.07106781187-1               0
GRID*                 23               0 7.07106781187-1           9.0+0*
*       -7.07106781187-1               0
GRID          24       0   0.0+0   9.0+0   0.0+0       0
GRID          25       0   0.0+0   1.2+1   0.0+0       0
GRID*                 26               0 7.07106781187-1           1.2+1*
*       -7.07106781187-1               0
GRID*                 27               0 7.07106781187-1           1.3+1*
*       -7.07106781187-1               0
GRID          28       0   0.0+0   1.3+1   0.0+0       0
GRID*                 29               0 2.82842712475+0           8.0+0*
*       -2.82842712475+0               0
GRID*                 30               0 4.24264068712+0           8.0+0*
*       -4.24264068712+0               0
GRID*                 31               0 4.24264068712+0           1.0+1*
*       -4.24264068712+0               0
GRID*                 32               0 2.82842712475+0           1.0+1*
*       -2.82842712475+0               0
GRID          33       0   0.0+0   1.0+1   0.0+0       0
GRID*                 34               0 7.07106781187-1           1.0+1*
*       -7.07106781187-1               0
GRID*                 35               0 7.07106781187-1           1.1+1*
*       -7.07106781187-1               0
GRID          36       0   0.0+0   1.1+1   0.0+0       0
GRID*                 37               0 3.53553390593-1           1.0+1*
*       -3.53553390593-1               0
GRID*                 38               0 7.07106781187-1          1.05+1*
*       -7.07106781187-1               0
GRID*                 39               0 3.53553390593-1           1.1+1*
*       -3.53553390593-1               0
GRID          40       0   0.0+0  1.05+1   0.0+0       0
GRID          41       0   0.0+0   6.0+0   0.0+0       0
GRID          42       0   1.0+0   6.0+0   0.0+0       0
GRID          43       0   1.0+0   7.0+0   0.0+0       0
GRID          44       0   0.0+0   7.0+0   0.0+0       0
GRID          45       0   0.0+0   1.4+1   0.0+0       0
GRID*                 46               0 7.07106781187-1           1.4+1*
*       -7.07106781187-1               0
GRID*                 47               0 7.07106781187-1           1.5+1*
*       -7.07106781187-1               0
GRID          48       0   0.0+0   1.5+1   0.0+0       0
PARAM    STR_CID      -2
$--1---><--2---><--3---><--4---><--5---><--6---><--7---><--8---><--9---><--10-->
$$$$$$$$$$$$$$$$$$$$$$$$$$$$$$$$$ orthotropic $$$$$$$$$$$$$$$$$$$$$$$$$$$$$$$$$$
MAT8           4  1.0+11  1.0+11   0.0+0  6.0+10  5.0+10  5.0+10   0.0+0+
+          0.0+0   0.0+0   0.0+0
$--1---><--2---><--3---><--4---><--5---><--6---><--7---><--8---><--9---><--10-->
$$$$$$$$$$$$$$$$$$$$$$$$$$$$$$$$$$ isotropic $$$$$$$$$$$$$$$$$$$$$$$$$$$$$$$$$$$
MAT1           3  1.2+11  6.0+10   0.0+0   0.0+0   0.0+0   0.0+0
$--1---><--2---><--3---><--4---><--5---><--6---><--7---><--8---><--9---><--10-->
$$$$$$$$$$$$$$$$$$$$$$$$$$$$$$$$$$ composite $$$$$$$$$$$$$$$$$$$$$$$$$$$$$$$$$$$
MAT8           1  1.0+11  1.0+11   0.0+0  6.0+10  5.0+10  5.0+10   0.0+0+
+          0.0+0   0.0+0   0.0+0
MAT8           2  1.0+11  1.0+11   0.0+0  6.0+10  5.0+10  5.0+10   0.0+0+
+          0.0+0   0.0+0   0.0+0
$--1---><--2---><--3---><--4---><--5---><--6---><--7---><--8---><--9---><--10-->
SPC            1       1       1   0.0+0
SPC            1       1       2   0.0+0
SPC            1       1       3   0.0+0
SPC            1       1       4   0.0+0
SPC            1       1       5   0.0+0
SPC            1       1       6   0.0+0
SPC            1       4       1   0.0+0
SPC            1       4       2   0.0+0
SPC            1       4       3   0.0+0
SPC            1       4       4   0.0+0
SPC            1       4       5   0.0+0
SPC            1       4       6   0.0+0
SPC            1       5       1   0.0+0
SPC            1       5       2   0.0+0
SPC            1       5       3   0.0+0
SPC            1       5       4   0.0+0
SPC            1       5       5   0.0+0
SPC            1       5       6   0.0+0
SPC            1       8       1   0.0+0
SPC            1       8       2   0.0+0
$ ... 112 like lines cut
$--1---><--2---><--3---><--4---><--5---><--6---><--7---><--8---><--9---><--10-->
$$$$$$$$$$$$$$$$$$$$$$$$$$$$$$$$$$$ Default $$$$$$$$$$$$$$$$$$$$$$$$$$$$$$$$$$$$
PSHELL         1       4   1.5-2       4               4           0.0+0
CQUAD4         1       1       1       2       3       4   0.0+0   0.0+0
CQUAD4         4       1       9      10      11      12   0.0+0   0.0+0
CQUAD4         6       1      21      22      23      24   0.0+0   0.0+0
CQUAD4         9       1      29      30      31      32   0.0+0   0.0+0
PSHELL         2       4   1.5-2       4               4           0.0+0
CTRIA3         2       2       5       6       7   0.0+0   0.0+0
CTRIA3         3       2       5       7       8   0.0+0   0.0+0
CTRIA3         7       2      25      26      27   0.0+0   0.0+0
CTRIA3         8       2      25      27      28   0.0+0   0.0+0
$--1---><--2---><--3---><--4---><--5---><--6---><--7---><--8---><--9---><--10-->
$$$$$$$$$$$$$$$$$$$$$$$$$$$$$$$$$$ Component $$$$$$$$$$$$$$$$$$$$$$$$$$$$$$$$$$$
PSHELL         3       3   1.5-2       3               3           0.0+0
CQUAD8         5       3      13      14      15      16      17      18+
+             19      20                                       4   0.0+0
CORD2R         4       0   0.0+0   0.0+0   0.0+0   0.0+0   1.0+0   0.0+0+
+          1.0+0   0.0+0   0.0+0
CQUAD8        10       3      33      34      35      36      37      38+
+             39      40                                       5   0.0+0
CORD2R*                5               0           0.0+0           0.0+0*
*                  0.0+0           0.0+0           1.0+0           0.0+0*
*        7.07106781187-1           0.0+0-7.07106781187-1                *
*
$--1---><--2---><--3---><--4---><--5---><--6---><--7---><--8---><--9---><--10-->
$$$$$$$$$$$$$$$$$$$$$$$$$$$$$$$$$ Component(2) $$$$$$$$$$$$$$$$$$$$$$$$$$$$$$$$$
PCOMP          6                                   0.0+0                +
+              1   1.0-2   0.0+0               2   5.0-3   0.0+0        
CQUAD4        11       6      41      42      43      44   0.0+0   0.0+0
CQUAD4        12       6      45      46      47      48   0.0+0   0.0+0
$--1---><--2---><--3---><--4---><--5---><--6---><--7---><--8---><--9---><--10-->
$$$$$$$$$$$$$$$$$$$$$$$$$$$$$$$$$$$$ moment $$$$$$$$$$$$$$$$$$$$$$$$$$$$$$$$$$$$
MOMENT         2       7       0   1.0+0   0.0+0   0.0+0   1.0+0
$--1---><--2---><--3---><--4---><--5---><--6---><--7---><--8---><--9---><--10-->
$$$$$$$$$$$$$$$$$$$$$$$$$$$$$$$$$$$$ moment $$$$$$$$$$$$$$$$$$$$$$$$$$$$$$$$$$$$
MOMENT         2       3       0   1.0+0   0.0+0   0.0+0   1.0+0
$--1---><--2---><--3---><--4---><--5---><--6---><--7---><--8---><--9---><--10-->
$$$$$$$$$$$$$$$$$$$$$$$$$$$$$$$$$$$$ moment $$$$$$$$$$$$$$$$$$$$$$$$$$$$$$$$$$$$
MOMENT         2      11       0   1.0+0   0.0+0   0.0+0   4.0+0
$--1---><--2---><--3---><--4---><--5---><--6---><--7---><--8---><--9---><--10-->
$$$$$$$$$$$$$$$$$$$$$$$$$$$$$$$$$$$$ moment $$$$$$$$$$$$$$$$$$$$$$$$$$$$$$$$$$$$
MOMENT         2      18       0   1.0+0   0.0+0   0.0+0   1.0+0
$--1---><--2---><--3---><--4---><--5---><--6---><--7---><--8---><--9---><--10-->
$$$$$$$$$$$$$$$$$$$$$$$$$$$$$$$$$$$$ moment $$$$$$$$$$$$$$$$$$$$$$$$$$$$$$$$$$$$
MOMENT*                2              23               0           1.0+0*
*        7.07106781187-1           0.0+0 7.07106781187-1
$--1---><--2---><--3---><--4---><--5---><--6---><--7---><--8---><--9---><--10-->
$$$$$$$$$$$$$$$$$$$$$$$$$$$$$$$$$$$$ moment $$$$$$$$$$$$$$$$$$$$$$$$$$$$$$$$$$$$
MOMENT*                2              38               0           1.0+0*
*        7.07106781187-1           0.0+0 7.07106781187-1
$--1---><--2---><--3---><--4---><--5---><--6---><--7---><--8---><--9---><--10-->
$$$$$$$$$$$$$$$$$$$$$$$$$$$$$$$$$$$$ moment $$$$$$$$$$$$$$$$$$$$$$$$$$$$$$$$$$$$
MOMENT*                2              27               0           1.0+0*
*        7.07106781187-1           0.0+0 7.07106781187-1
$--1---><--2---><--3---><--4---><--5---><--6---><--7---><--8---><--9---><--10-->
$$$$$$$$$$$$$$$$$$$$$$$$$$$$$$$$$$$$ moment $$$$$$$$$$$$$$$$$$$$$$$$$$$$$$$$$$$$
MOMENT*                2              31               0           1.0+0*
*        2.82842712475+0           0.0+0 2.82842712475+0
$--1---><--2---><--3---><--4---><--5---><--6---><--7---><--8---><--9---><--10-->
$$$$$$$$$$$$$$$$$$$$$$$$$$$$$$$$$$$$ moment $$$$$$$$$$$$$$$$$$$$$$$$$$$$$$$$$$$$
MOMENT         2      43       0   1.0+0   0.0+0   0.0+0   1.0+0
$--1---><--2---><--3---><--4---><--5---><--6---><--7---><--8---><--9---><--10-->
$$$$$$$$$$$$$$$$$$$$$$$$$$$$$$$$$$$$ moment $$$$$$$$$$$$$$$$$$$$$$$$$$$$$$$$$$$$
MOMENT*                2              47               0           1.0+0*
*        7.07106781187-1           0.0+0 7.07106781187-1
$--1---><--2---><--3---><--4---><--5---><--6---><--7---><--8---><--9---><--10-->
LOAD           1   1.0+0   1.0+0       2
PARAM,K6ROT,10.0
ENDDATA 
