$ Generated by Mecway 33
$-----------------------EXECUTIVE CONTROL SECTION-----------------------
SOL 101
CEND
$-------------------------CASE CONTROL SECTION--------------------------
DISPLACEMENT = ALL
STRESS(CORNER) = ALL
SPC = 1
LOAD = 1
BEGIN BULK
$---------------------------BULK DATA SECTION---------------------------
GRID           1       0   0.0+0   0.0+0   0.0+0       0
GRID           2       0   1.0+0   0.0+0   0.0+0       0
GRID           3       0   1.0+0   1.0+0   0.0+0       0
GRID           4       0   0.0+0   1.0+0   0.0+0       0
GRID           5       0   2.0-1   0.0+0   1.0+0       0
GRID           6       0   1.0+0   0.0+0   1.0+0       0
GRID           7       0   1.0+0   1.0+0   1.0+0       0
GRID           8       0   2.0-1   1.0+0   1.0+0       0
GRID           9       0   2.0+0   0.0+0   0.0+0       0
GRID          10       0   3.0+0   0.0+0   0.0+0       0
GRID          11       0   3.0+0   1.0+0   0.0+0       0
GRID          12       0   2.0+0   1.0+0   0.0+0       0
GRID          13       0   2.2+0   0.0+0   1.0+0       1
GRID          14       0   3.0+0   0.0+0   1.0+0       0
GRID          15       0   3.0+0   1.0+0   1.0+0       0
GRID          16       0   2.2+0   1.0+0   1.0+0       0
GRID          17       0   2.5+0   0.0+0   0.0+0       2
GRID          18       0   3.0+0   5.0-1   0.0+0       0
GRID          19       0   2.5+0   1.0+0   0.0+0       0
GRID          20       0   2.0+0   5.0-1   0.0+0       0
GRID*                 21               0 2.17180109024+0 -4.7683677451-8*
*                  5.0-1               3
GRID          22       0   3.0+0   0.0+0   5.0-1       4
GRID          23       0   3.0+0   1.0+0   5.0-1       0
GRID*                 24               0 2.17180109024+0 9.99999952316-1*
*                  5.0-1               0
GRID          25       0   2.6+0   0.0+0   1.0+0       5
GRID          26       0   3.0+0   5.0-1   1.0+0       0
GRID          27       0   2.6+0   1.0+0   1.0+0       0
GRID          28       0   2.2+0   5.0-1   1.0+0       0
PARAM    STR_CID      -2
$--1---><--2---><--3---><--4---><--5---><--6---><--7---><--8---><--9---><--10-->
$$$$$$$$$$$$$$$$$$$$$$$$$$$$$$$$$$$ Material $$$$$$$$$$$$$$$$$$$$$$$$$$$$$$$$$$$
MAT1*                  1          5.0+10 1.7857142857+10           4.0-1*
*                  0.0+0           0.0+0           0.0+0
$--1---><--2---><--3---><--4---><--5---><--6---><--7---><--8---><--9---><--10-->
CORD2R*                1               0           0.0+0           0.0+0*
*                  0.0+0           0.0+0      1.907347-7           1.0+0*
*                  1.0+0           0.0+0           0.0+0                *
*
CORD2R*                2               0           0.0+0           0.0+0*
*                  0.0+0           0.0+0      -9.53674-8           1.0+0*
*                  1.0+0           0.0+0           0.0+0                *
*
CORD2R*                3               0           0.0+0           0.0+0*
*                  0.0+0   6.62978428-16       -1.1515-8           1.0+0*
*                  1.0+0       5.75752-8           0.0+0                *
*
CORD2R*                4               0           0.0+0           0.0+0*
*                  0.0+0           0.0+0           0.0+0           1.0+0*
*                  1.0+0       5.75752-8           0.0+0                *
*
CORD2R*                5               0           0.0+0           0.0+0*
*                  0.0+0           0.0+0       9.53674-8           1.0+0*
*                  1.0+0           0.0+0           0.0+0                *
*
SPC            1       1       1   0.0+0
SPC            1       1       2   0.0+0
SPC            1       1       3   0.0+0
SPC            1       2       2   0.0+0
SPC            1       2       3   0.0+0
SPC            1       5       2   0.0+0
SPC            1       6       2   0.0+0
SPC            1       9       1   0.0+0
SPC            1       9       2   0.0+0
SPC            1       9       3   0.0+0
SPC            1      10       2   0.0+0
SPC            1      10       3   0.0+0
SPC            1      13       2   0.0+0
SPC            1      14       2   0.0+0
SPC            1      17       2   0.0+0
SPC            1      21       2   0.0+0
SPC            1      22       2   0.0+0
SPC            1      25       2   0.0+0
$--1---><--2---><--3---><--4---><--5---><--6---><--7---><--8---><--9---><--10-->
$$$$$$$$$$$$$$$$$$$$$$$$$$$$$$$$$$$ Default $$$$$$$$$$$$$$$$$$$$$$$$$$$$$$$$$$$$
PSOLID         6       1       0       2               1
CHEXA          1       6       1       2       3       4       5       6+
+              7       8
PSOLID         7       1       0       3               1
CHEXA          2       7       9      10      11      12      13      14+
+             15      16      17      18      19      20      21      22+
+             23      24      25      26      27      28
$--1---><--2---><--3---><--4---><--5---><--6---><--7---><--8---><--9---><--10-->
$$$$$$$$$$$$$$$$$$$$$$$$$$$$$$$$$$$$ force $$$$$$$$$$$$$$$$$$$$$$$$$$$$$$$$$$$$$
FORCE*                 2               3               0           1.0+0*
*                  0.0+0 3.99513140387+3           0.0+0
FORCE*                 2               4               0           1.0+0*
*                  0.0+0 3.99513140387+3           0.0+0
FORCE*                 2               7               0           1.0+0*
*                  0.0+0 3.70976487502+3           0.0+0
FORCE*                 2               8               0           1.0+0*
*                  0.0+0 3.70976487502+3           0.0+0
FORCE*                 2              11               0           1.0+0*
*                  0.0+0-1.14097002819+3           0.0+0
FORCE*                 2              12               0           1.0+0*
*                  0.0+0-1.14097002819+3           0.0+0
FORCE*                 2              15               0           1.0+0*
*                  0.0+0-1.23609220447+3           0.0+0
FORCE*                 2              16               0           1.0+0*
*                  0.0+0-1.23609220447+3           0.0+0
FORCE*                 2              19               0           1.0+0*
*                  0.0+0  5.0536468333+3           0.0+0
FORCE*                 2              23               0           1.0+0*
*                  0.0+0 4.80876347303+3           0.0+0
FORCE*                 2              24               0           1.0+0*
*                  0.0+0 4.80876347303+3           0.0+0
FORCE*                 2              27               0           1.0+0*
*                  0.0+0 4.67315812817+3           0.0+0
$--1---><--2---><--3---><--4---><--5---><--6---><--7---><--8---><--9---><--10-->
LOAD           1   1.0+0   1.0+0       2
ENDDATA 
